1,3-dichloroallene, two wedges
     RDKit          2D

  0  0  0  0  0  0  0  0  0  0999 V3000
M  V30 BEGIN CTAB
M  V30 COUNTS 5 4 0 0 0
M  V30 BEGIN ATOM
M  V30 1 Cl 1.036800 1.202040 0.000000 0
M  V30 2 C 1.038800 0.202040 0.000000 0
M  V30 3 C 0.173800 -0.299560 0.000000 0
M  V30 4 C -0.691200 -0.801360 0.000000 0
M  V30 5 Cl -1.558200 -0.303160 0.000000 0
M  V30 END ATOM
M  V30 BEGIN BOND
M  V30 1 1 2 1 CFG=1
M  V30 2 2 2 3
M  V30 3 2 3 4
M  V30 4 1 4 5 CFG=3
M  V30 END BOND
M  V30 END CTAB
M  END
>  <ID>
31

>  <OLD>
InChI=1S/C3H2Cl2/c4-2-1-3-5/h2-3H/t1-/m1/s1

>  <NEW>
InChI=1B/C3H2Cl2/c4-2-1-3-5/h2-3H/t1-/m1/s1

$$$$
1,3-dichloroallene, mirror image
     RDKit          2D

  0  0  0  0  0  0  0  0  0  0999 V3000
M  V30 BEGIN CTAB
M  V30 COUNTS 5 4 0 0 0
M  V30 BEGIN ATOM
M  V30 1 Cl 1.036800 1.202040 0.000000 0
M  V30 2 C 1.038800 0.202040 0.000000 0
M  V30 3 C 0.173800 -0.299560 0.000000 0
M  V30 4 C -0.691200 -0.801360 0.000000 0
M  V30 5 Cl -1.558200 -0.303160 0.000000 0
M  V30 END ATOM
M  V30 BEGIN BOND
M  V30 1 1 2 1 CFG=3
M  V30 2 2 2 3
M  V30 3 2 3 4
M  V30 4 1 4 5 CFG=1
M  V30 END BOND
M  V30 END CTAB
M  END
>  <ID>
32

>  <OLD>
InChI=1S/C3H2Cl2/c4-2-1-3-5/h2-3H/t1-/m0/s1

>  <NEW>
InChI=1B/C3H2Cl2/c4-2-1-3-5/h2-3H/t1-/m0/s1

$$$$
1,3-dichloroallene, single wedge
     RDKit          2D

  0  0  0  0  0  0  0  0  0  0999 V3000
M  V30 BEGIN CTAB
M  V30 COUNTS 5 4 0 0 0
M  V30 BEGIN ATOM
M  V30 1 Cl 1.036800 1.202040 0.000000 0
M  V30 2 C 1.038800 0.202040 0.000000 0
M  V30 3 C 0.173800 -0.299560 0.000000 0
M  V30 4 C -0.691200 -0.801360 0.000000 0
M  V30 5 Cl -1.558200 -0.303160 0.000000 0
M  V30 END ATOM
M  V30 BEGIN BOND
M  V30 1 1 2 1 CFG=1
M  V30 2 2 2 3
M  V30 3 2 3 4
M  V30 4 1 4 5
M  V30 END BOND
M  V30 END CTAB
M  END
>  <ID>
33

>  <OLD>
InChI=1S/C3H2Cl2/c4-2-1-3-5/h2-3H/t1-/m1/s1

>  <NEW>
InChI=1B/C3H2Cl2/c4-2-1-3-5/h2-3H/t1-/m1/s1

$$$$
edge: flat drawing, axis undefined
     RDKit          2D

  0  0  0  0  0  0  0  0  0  0999 V3000
M  V30 BEGIN CTAB
M  V30 COUNTS 5 4 0 0 0
M  V30 BEGIN ATOM
M  V30 1 Cl 1.036800 1.202040 0.000000 0
M  V30 2 C 1.038800 0.202040 0.000000 0
M  V30 3 C 0.173800 -0.299560 0.000000 0
M  V30 4 C -0.691200 -0.801360 0.000000 0
M  V30 5 Cl -1.558200 -0.303160 0.000000 0
M  V30 END ATOM
M  V30 BEGIN BOND
M  V30 1 1 1 2
M  V30 2 2 2 3
M  V30 3 2 3 4
M  V30 4 1 4 5
M  V30 END BOND
M  V30 END CTAB
M  END
>  <ID>
34

>  <OLD>
InChI=1S/C3H2Cl2/c4-2-1-3-5/h2-3H

>  <NEW>
InChI=1B/C3H2Cl2/c4-2-1-3-5/h2-3H

$$$$
deck slide 18, two wedges
     RDKit          2D

  0  0  0  0  0  0  0  0  0  0999 V3000
M  V30 BEGIN CTAB
M  V30 COUNTS 7 6 0 0 0
M  V30 BEGIN ATOM
M  V30 1 F 1.732000 0.003400 0.000000 0
M  V30 2 C 0.865000 0.501800 0.000000 0
M  V30 3 Br 0.863000 1.501600 0.000000 0
M  V30 4 C -0.000000 -0.000000 0.000000 0
M  V30 5 C -0.865000 -0.501800 0.000000 0
M  V30 6 C -0.863000 -1.501600 0.000000 0
M  V30 7 Cl -1.732000 -0.003400 0.000000 0
M  V30 END ATOM
M  V30 BEGIN BOND
M  V30 1 1 1 2
M  V30 2 1 2 3 CFG=1
M  V30 3 2 2 4
M  V30 4 2 4 5
M  V30 5 1 5 6
M  V30 6 1 5 7 CFG=3
M  V30 END BOND
M  V30 END CTAB
M  END
>  <ID>
35

>  <OLD>
InChI=1S/C4H3BrClF/c1-3(6)2-4(5)7/h1H3/t2-/m0/s1

>  <NEW>
InChI=1B/C4H3BrClF/c1-3(6)2-4(5)7/h1H3/t2-/m0/s1

$$$$
deck slide 18, mirror image
     RDKit          2D

  0  0  0  0  0  0  0  0  0  0999 V3000
M  V30 BEGIN CTAB
M  V30 COUNTS 7 6 0 0 0
M  V30 BEGIN ATOM
M  V30 1 F 1.732000 0.003400 0.000000 0
M  V30 2 C 0.865000 0.501800 0.000000 0
M  V30 3 Br 0.863000 1.501600 0.000000 0
M  V30 4 C -0.000000 -0.000000 0.000000 0
M  V30 5 C -0.865000 -0.501800 0.000000 0
M  V30 6 C -0.863000 -1.501600 0.000000 0
M  V30 7 Cl -1.732000 -0.003400 0.000000 0
M  V30 END ATOM
M  V30 BEGIN BOND
M  V30 1 1 1 2
M  V30 2 1 2 3 CFG=3
M  V30 3 2 2 4
M  V30 4 2 4 5
M  V30 5 1 5 6
M  V30 6 1 5 7 CFG=1
M  V30 END BOND
M  V30 END CTAB
M  END
>  <ID>
36

>  <OLD>
InChI=1S/C4H3BrClF/c1-3(6)2-4(5)7/h1H3/t2-/m1/s1

>  <NEW>
InChI=1B/C4H3BrClF/c1-3(6)2-4(5)7/h1H3/t2-/m1/s1

$$$$
deck slide 18, single wedge
     RDKit          2D

  0  0  0  0  0  0  0  0  0  0999 V3000
M  V30 BEGIN CTAB
M  V30 COUNTS 7 6 0 0 0
M  V30 BEGIN ATOM
M  V30 1 F 1.732000 0.003400 0.000000 0
M  V30 2 C 0.865000 0.501800 0.000000 0
M  V30 3 Br 0.863000 1.501600 0.000000 0
M  V30 4 C -0.000000 -0.000000 0.000000 0
M  V30 5 C -0.865000 -0.501800 0.000000 0
M  V30 6 C -0.863000 -1.501600 0.000000 0
M  V30 7 Cl -1.732000 -0.003400 0.000000 0
M  V30 END ATOM
M  V30 BEGIN BOND
M  V30 1 1 1 2
M  V30 2 1 2 3
M  V30 3 2 2 4
M  V30 4 2 4 5
M  V30 5 1 5 6
M  V30 6 1 5 7 CFG=1
M  V30 END BOND
M  V30 END CTAB
M  END
>  <ID>
37

>  <OLD>
InChI=1S/C4H3BrClF/c1-3(6)2-4(5)7/h1H3

>  <NEW>
InChI=1B/C4H3BrClF/c1-3(6)2-4(5)7/h1H3/t2-/m1/s1

$$$$
edge: two wedges at one end contradict
     RDKit          2D

  0  0  0  0  0  0  0  0  0  0999 V3000
M  V30 BEGIN CTAB
M  V30 COUNTS 7 6 0 0 0
M  V30 BEGIN ATOM
M  V30 1 F 1.732000 0.003400 0.000000 0
M  V30 2 C 0.865000 0.501800 0.000000 0
M  V30 3 Br 0.863000 1.501600 0.000000 0
M  V30 4 C -0.000000 -0.000000 0.000000 0
M  V30 5 C -0.865000 -0.501800 0.000000 0
M  V30 6 C -0.863000 -1.501600 0.000000 0
M  V30 7 Cl -1.732000 -0.003400 0.000000 0
M  V30 END ATOM
M  V30 BEGIN BOND
M  V30 1 1 2 1 CFG=1
M  V30 2 1 2 3 CFG=1
M  V30 3 2 2 4
M  V30 4 2 4 5
M  V30 5 1 5 6
M  V30 6 1 5 7
M  V30 END BOND
M  V30 END CTAB
M  END
>  <ID>
38

>  <OLD>
InChI=1S/C4H3BrClF/c1-3(6)2-4(5)7/h1H3

>  <NEW>
InChI=1B/C4H3BrClF/c1-3(6)2-4(5)7/h1H3

$$$$
deck slide 18, rotated drawing
     RDKit          2D

  0  0  0  0  0  0  0  0  0  0999 V3000
M  V30 BEGIN CTAB
M  V30 COUNTS 7 6 0 0 0
M  V30 BEGIN ATOM
M  V30 1 F 0.932943 1.459265 0.000000 0
M  V30 2 C 0.045111 0.998996 0.000000 0
M  V30 3 Br -0.797272 1.537507 0.000000 0
M  V30 4 C 0.000000 -0.000000 0.000000 0
M  V30 5 C -0.045111 -0.998996 0.000000 0
M  V30 6 C 0.797272 -1.537507 0.000000 0
M  V30 7 Cl -0.932943 -1.459265 0.000000 0
M  V30 END ATOM
M  V30 BEGIN BOND
M  V30 1 1 1 2
M  V30 2 1 2 3 CFG=1
M  V30 3 2 2 4
M  V30 4 2 4 5
M  V30 5 1 5 6
M  V30 6 1 5 7 CFG=3
M  V30 END BOND
M  V30 END CTAB
M  END
>  <ID>
39

>  <OLD>
InChI=1S/C4H3BrClF/c1-3(6)2-4(5)7/h1H3/t2-/m0/s1

>  <NEW>
InChI=1B/C4H3BrClF/c1-3(6)2-4(5)7/h1H3/t2-/m0/s1

$$$$
ABS group on the central atom
     RDKit          2D

  0  0  0  0  0  0  0  0  0  0999 V3000
M  V30 BEGIN CTAB
M  V30 COUNTS 7 6 0 0 0
M  V30 BEGIN ATOM
M  V30 1 F 1.732000 0.003400 0.000000 0
M  V30 2 C 0.865000 0.501800 0.000000 0
M  V30 3 Br 0.863000 1.501600 0.000000 0
M  V30 4 C -0.000000 -0.000000 0.000000 0
M  V30 5 C -0.865000 -0.501800 0.000000 0
M  V30 6 C -0.863000 -1.501600 0.000000 0
M  V30 7 Cl -1.732000 -0.003400 0.000000 0
M  V30 END ATOM
M  V30 BEGIN BOND
M  V30 1 1 1 2
M  V30 2 1 2 3 CFG=1
M  V30 3 2 2 4
M  V30 4 2 4 5
M  V30 5 1 5 6
M  V30 6 1 5 7 CFG=3
M  V30 END BOND
M  V30 BEGIN COLLECTION
M  V30 MDLV30/STEABS ATOMS=(1 4)
M  V30 END COLLECTION
M  V30 END CTAB
M  END
>  <ID>
40

>  <OLD>
InChI=1S/C4H3BrClF/c1-3(6)2-4(5)7/h1H3/t2-/m0/s1

>  <NEW>
InChI=1B/C4H3BrClF/c1-3(6)2-4(5)7/h1H3/t2-/m0/s1

$$$$
OR group on the central atom
     RDKit          2D

  0  0  0  0  0  0  0  0  0  0999 V3000
M  V30 BEGIN CTAB
M  V30 COUNTS 7 6 0 0 0
M  V30 BEGIN ATOM
M  V30 1 F 1.732000 0.003400 0.000000 0
M  V30 2 C 0.865000 0.501800 0.000000 0
M  V30 3 Br 0.863000 1.501600 0.000000 0
M  V30 4 C -0.000000 -0.000000 0.000000 0
M  V30 5 C -0.865000 -0.501800 0.000000 0
M  V30 6 C -0.863000 -1.501600 0.000000 0
M  V30 7 Cl -1.732000 -0.003400 0.000000 0
M  V30 END ATOM
M  V30 BEGIN BOND
M  V30 1 1 1 2
M  V30 2 1 2 3 CFG=1
M  V30 3 2 2 4
M  V30 4 2 4 5
M  V30 5 1 5 6
M  V30 6 1 5 7 CFG=3
M  V30 END BOND
M  V30 BEGIN COLLECTION
M  V30 MDLV30/STEREL1 ATOMS=(1 4)
M  V30 END COLLECTION
M  V30 END CTAB
M  END
>  <ID>
41

>  <OLD>
InChI=1S/C4H3BrClF/c1-3(6)2-4(5)7/h1H3/t2-/m0/s1

>  <NEW>
InChI=1B/C4H3BrClF/c1-3(6)2-4(5)7/h1H3/t2-/s2

$$$$
AND group on the central atom
     RDKit          2D

  0  0  0  0  0  0  0  0  0  0999 V3000
M  V30 BEGIN CTAB
M  V30 COUNTS 7 6 0 0 0
M  V30 BEGIN ATOM
M  V30 1 F 1.732000 0.003400 0.000000 0
M  V30 2 C 0.865000 0.501800 0.000000 0
M  V30 3 Br 0.863000 1.501600 0.000000 0
M  V30 4 C -0.000000 -0.000000 0.000000 0
M  V30 5 C -0.865000 -0.501800 0.000000 0
M  V30 6 C -0.863000 -1.501600 0.000000 0
M  V30 7 Cl -1.732000 -0.003400 0.000000 0
M  V30 END ATOM
M  V30 BEGIN BOND
M  V30 1 1 1 2
M  V30 2 1 2 3 CFG=1
M  V30 3 2 2 4
M  V30 4 2 4 5
M  V30 5 1 5 6
M  V30 6 1 5 7 CFG=3
M  V30 END BOND
M  V30 BEGIN COLLECTION
M  V30 MDLV30/STERAC1 ATOMS=(1 4)
M  V30 END COLLECTION
M  V30 END CTAB
M  END
>  <ID>
42

>  <OLD>
InChI=1S/C4H3BrClF/c1-3(6)2-4(5)7/h1H3/t2-/m0/s1

>  <NEW>
InChI=1B/C4H3BrClF/c1-3(6)2-4(5)7/h1H3/t2-/s3

$$$$
AND group, single wedge
     RDKit          2D

  0  0  0  0  0  0  0  0  0  0999 V3000
M  V30 BEGIN CTAB
M  V30 COUNTS 7 6 0 0 0
M  V30 BEGIN ATOM
M  V30 1 F 1.732000 0.003400 0.000000 0
M  V30 2 C 0.865000 0.501800 0.000000 0
M  V30 3 Br 0.863000 1.501600 0.000000 0
M  V30 4 C -0.000000 -0.000000 0.000000 0
M  V30 5 C -0.865000 -0.501800 0.000000 0
M  V30 6 C -0.863000 -1.501600 0.000000 0
M  V30 7 Cl -1.732000 -0.003400 0.000000 0
M  V30 END ATOM
M  V30 BEGIN BOND
M  V30 1 1 1 2
M  V30 2 1 2 3
M  V30 3 2 2 4
M  V30 4 2 4 5
M  V30 5 1 5 6
M  V30 6 1 5 7 CFG=1
M  V30 END BOND
M  V30 BEGIN COLLECTION
M  V30 MDLV30/STERAC1 ATOMS=(1 4)
M  V30 END COLLECTION
M  V30 END CTAB
M  END
>  <ID>
43

>  <OLD>
InChI=1S/C4H3BrClF/c1-3(6)2-4(5)7/h1H3

>  <NEW>
InChI=1B/C4H3BrClF/c1-3(6)2-4(5)7/h1H3/t2-/s3

$$$$
edge: AND group names a terminal atom (ignored)
     RDKit          2D

  0  0  0  0  0  0  0  0  0  0999 V3000
M  V30 BEGIN CTAB
M  V30 COUNTS 7 6 0 0 0
M  V30 BEGIN ATOM
M  V30 1 F 1.732000 0.003400 0.000000 0
M  V30 2 C 0.865000 0.501800 0.000000 0
M  V30 3 Br 0.863000 1.501600 0.000000 0
M  V30 4 C -0.000000 -0.000000 0.000000 0
M  V30 5 C -0.865000 -0.501800 0.000000 0
M  V30 6 C -0.863000 -1.501600 0.000000 0
M  V30 7 Cl -1.732000 -0.003400 0.000000 0
M  V30 END ATOM
M  V30 BEGIN BOND
M  V30 1 1 1 2
M  V30 2 1 2 3 CFG=1
M  V30 3 2 2 4
M  V30 4 2 4 5
M  V30 5 1 5 6
M  V30 6 1 5 7 CFG=3
M  V30 END BOND
M  V30 BEGIN COLLECTION
M  V30 MDLV30/STERAC1 ATOMS=(1 2)
M  V30 END COLLECTION
M  V30 END CTAB
M  END
>  <ID>
44

>  <OLD>
InChI=1S/C4H3BrClF/c1-3(6)2-4(5)7/h1H3/t2-/m0/s1

>  <NEW>
InChI=1B/C4H3BrClF/c1-3(6)2-4(5)7/h1H3/t2-/m0/s1

$$$$
edge: symmetric end, no axis
     RDKit          2D

  0  0  0  0  0  0  0  0  0  0999 V3000
M  V30 BEGIN CTAB
M  V30 COUNTS 6 5 0 0 0
M  V30 BEGIN ATOM
M  V30 1 C 0.719167 1.251433 0.000000 0
M  V30 2 C 0.721167 0.251433 0.000000 0
M  V30 3 C 1.588167 -0.246767 0.000000 0
M  V30 4 C -0.143833 -0.250367 0.000000 0
M  V30 5 C -1.008833 -0.751967 0.000000 0
M  V30 6 Cl -1.875833 -0.253767 0.000000 0
M  V30 END ATOM
M  V30 BEGIN BOND
M  V30 1 1 2 1 CFG=1
M  V30 2 1 2 3
M  V30 3 2 2 4
M  V30 4 2 4 5
M  V30 5 1 5 6 CFG=3
M  V30 END BOND
M  V30 END CTAB
M  END
>  <ID>
45

>  <OLD>
InChI=1S/C5H7Cl/c1-5(2)3-4-6/h4H,1-2H3

>  <NEW>
InChI=1B/C5H7Cl/c1-5(2)3-4-6/h4H,1-2H3

$$$$
penta-2,3-diene
     RDKit          2D

  0  0  0  0  0  0  0  0  0  0999 V3000
M  V30 BEGIN CTAB
M  V30 COUNTS 5 4 0 0 0
M  V30 BEGIN ATOM
M  V30 1 C 1.036800 1.202040 0.000000 0
M  V30 2 C 1.038800 0.202040 0.000000 0
M  V30 3 C 0.173800 -0.299560 0.000000 0
M  V30 4 C -0.691200 -0.801360 0.000000 0
M  V30 5 C -1.558200 -0.303160 0.000000 0
M  V30 END ATOM
M  V30 BEGIN BOND
M  V30 1 1 2 1 CFG=1
M  V30 2 2 2 3
M  V30 3 2 3 4
M  V30 4 1 4 5 CFG=3
M  V30 END BOND
M  V30 END CTAB
M  END
>  <ID>
46

>  <OLD>
InChI=1S/C5H8/c1-3-5-4-2/h3-4H,1-2H3/t5-/m1/s1

>  <NEW>
InChI=1B/C5H8/c1-3-5-4-2/h3-4H,1-2H3/t5-/m1/s1

$$$$
glutinic acid (penta-2,3-dienedioic acid)
     RDKit          2D

  0  0  0  0  0  0  0  0  0  0999 V3000
M  V30 BEGIN CTAB
M  V30 COUNTS 9 8 0 0 0
M  V30 BEGIN ATOM
M  V30 1 O 2.112089 1.340889 0.000000 0
M  V30 2 C 1.247889 0.837689 0.000000 0
M  V30 3 O 0.380089 1.334689 0.000000 0
M  V30 4 C 1.251489 -0.162111 0.000000 0
M  V30 5 C 0.387289 -0.665311 0.000000 0
M  V30 6 C -0.476911 -1.168311 0.000000 0
M  V30 7 C -1.344711 -0.671511 0.000000 0
M  V30 8 O -1.348311 0.328489 0.000000 0
M  V30 9 O -2.208911 -1.174511 0.000000 0
M  V30 END ATOM
M  V30 BEGIN BOND
M  V30 1 1 1 2
M  V30 2 2 2 3
M  V30 3 1 4 2 CFG=1
M  V30 4 2 4 5
M  V30 5 2 5 6
M  V30 6 1 6 7 CFG=3
M  V30 7 2 7 8
M  V30 8 1 7 9
M  V30 END BOND
M  V30 END CTAB
M  END
>  <ID>
47

>  <OLD>
InChI=1S/C5H4O4/c6-4(7)2-1-3-5(8)9/h2-3H,(H,6,7)(H,8,9)/t1-/m1/s1

>  <NEW>
InChI=1B/C5H4O4/c6-4(7)2-1-3-5(8)9/h2-3H,(H,6,7)(H,8,9)/t1-/m1/s1

$$$$
1,3-di-tert-butylallene
     RDKit          2D

  0  0  0  0  0  0  0  0  0  0999 V3000
M  V30 BEGIN CTAB
M  V30 COUNTS 11 10 0 0 0
M  V30 BEGIN ATOM
M  V30 1 C 0.425982 2.365036 0.000000 0
M  V30 2 C -0.075618 1.500036 0.000000 0
M  V30 3 C -0.574018 2.367236 0.000000 0
M  V30 4 C -0.942818 1.001836 0.000000 0
M  V30 5 C 0.789382 0.998436 0.000000 0
M  V30 6 C 0.787382 -0.001564 0.000000 0
M  V30 7 C 0.785182 -1.001564 0.000000 0
M  V30 8 C -0.081818 -1.499764 0.000000 0
M  V30 9 C 0.416582 -2.366764 0.000000 0
M  V30 10 C -0.583418 -2.364764 0.000000 0
M  V30 11 C -0.946818 -0.998164 0.000000 0
M  V30 END ATOM
M  V30 BEGIN BOND
M  V30 1 1 1 2
M  V30 2 1 2 3
M  V30 3 1 2 4
M  V30 4 1 5 2 CFG=1
M  V30 5 2 5 6
M  V30 6 2 6 7
M  V30 7 1 7 8 CFG=3
M  V30 8 1 8 9
M  V30 9 1 8 10
M  V30 10 1 8 11
M  V30 END BOND
M  V30 END CTAB
M  END
>  <ID>
48

>  <OLD>
InChI=1S/C11H20/c1-10(2,3)8-7-9-11(4,5)6/h8-9H,1-6H3/t7-/m1/s1

>  <NEW>
InChI=1B/C11H20/c1-10(2,3)8-7-9-11(4,5)6/h8-9H,1-6H3/t7-/m1/s1

$$$$
allene AND + stereocentre ABS
     RDKit          2D

  0  0  0  0  0  0  0  0  0  0999 V3000
M  V30 BEGIN CTAB
M  V30 COUNTS 7 6 0 0 0
M  V30 BEGIN ATOM
M  V30 1 C -1.857400 -0.782000 0.000000 0
M  V30 2 C -0.990400 -0.283800 0.000000 0
M  V30 3 O -0.988200 0.716200 0.000000 0
M  V30 4 C -0.125400 -0.785400 0.000000 0
M  V30 5 C 0.741800 -0.287200 0.000000 0
M  V30 6 C 1.608800 0.211200 0.000000 0
M  V30 7 Cl 1.610800 1.211000 0.000000 0
M  V30 END ATOM
M  V30 BEGIN BOND
M  V30 1 1 2 1 CFG=3
M  V30 2 1 2 3
M  V30 3 1 2 4
M  V30 4 2 4 5
M  V30 5 2 5 6
M  V30 6 1 6 7 CFG=1
M  V30 END BOND
M  V30 BEGIN COLLECTION
M  V30 MDLV30/STEABS ATOMS=(1 2)
M  V30 MDLV30/STERAC1 ATOMS=(1 5)
M  V30 END COLLECTION
M  V30 END CTAB
M  END
>  <ID>
49

>  <OLD>
InChI=1S/C5H7ClO/c1-5(7)3-2-4-6/h3-5,7H,1H3/t2-,5+/m1/s1

>  <NEW>
InChI=1B/C5H7ClO/c1-5(7)3-2-4-6/h3-5,7H,1H3/t2-,5-/m0/s1(5)3(2)

$$$$
two allene axes, two OR groups
     RDKit          2D

  0  0  0  0  0  0  0  0  0  0999 V3000
M  V30 BEGIN CTAB
M  V30 COUNTS 9 8 0 0 0
M  V30 BEGIN ATOM
M  V30 1 Cl -2.598933 1.164600 0.000000 0
M  V30 2 C -2.598133 0.164600 0.000000 0
M  V30 3 C -1.731733 -0.334800 0.000000 0
M  V30 4 C -0.865333 -0.834000 0.000000 0
M  V30 5 C 0.000267 -0.333400 0.000000 0
M  V30 6 C 0.866667 -0.832600 0.000000 0
M  V30 7 C 1.732267 -0.332000 0.000000 0
M  V30 8 C 2.597867 0.168800 0.000000 0
M  V30 9 Cl 2.597067 1.168800 0.000000 0
M  V30 END ATOM
M  V30 BEGIN BOND
M  V30 1 1 2 1 CFG=1
M  V30 2 2 2 3
M  V30 3 2 3 4
M  V30 4 1 4 5 CFG=3
M  V30 5 1 6 5 CFG=1
M  V30 6 2 6 7
M  V30 7 2 7 8
M  V30 8 1 8 9 CFG=3
M  V30 END BOND
M  V30 BEGIN COLLECTION
M  V30 MDLV30/STEREL1 ATOMS=(1 3)
M  V30 MDLV30/STEREL2 ATOMS=(1 7)
M  V30 END COLLECTION
M  V30 END CTAB
M  END
>  <ID>
50

>  <OLD>
InChI=1S/C7H6Cl2/c8-6-4-2-1-3-5-7-9/h2-3,6-7H,1H2/t4-,5-/m0/s1

>  <NEW>
InChI=1B/C7H6Cl2/c8-6-4-2-1-3-5-7-9/h2-3,6-7H,1H2/t4-,5-/s2(4)(5)

$$$$
allene next to an E double bond
     RDKit          2D

  0  0  0  0  0  0  0  0  0  0999 V3000
M  V30 BEGIN CTAB
M  V30 COUNTS 7 6 0 0 0
M  V30 BEGIN ATOM
M  V30 1 Cl -2.474400 -0.140914 0.000000 0
M  V30 2 C -1.608800 -0.641514 0.000000 0
M  V30 3 C -0.742400 -0.142314 0.000000 0
M  V30 4 C 0.123200 -0.642914 0.000000 0
M  V30 5 C 0.989600 -0.143714 0.000000 0
M  V30 6 C 1.856000 0.355686 0.000000 0
M  V30 7 C 1.856800 1.355686 0.000000 0
M  V30 END ATOM
M  V30 BEGIN BOND
M  V30 1 1 1 2
M  V30 2 2 2 3
M  V30 3 1 4 3 CFG=1
M  V30 4 2 4 5
M  V30 5 2 5 6
M  V30 6 1 6 7 CFG=3
M  V30 END BOND
M  V30 END CTAB
M  END
>  <ID>
51

>  <OLD>
InChI=1S/C6H7Cl/c1-2-3-4-5-6-7/h2,4-6H,1H3/b6-5+/t3-/m0/s1

>  <NEW>
InChI=1B/C6H7Cl/c1-2-3-4-5-6-7/h2,4-6H,1H3/b6-5+/t3-/m0/s1

$$$$
cyclonona-1,2-diene
     RDKit          2D

  0  0  0  0  0  0  0  0  0  0999 V3000
M  V30 BEGIN CTAB
M  V30 COUNTS 9 9 0 0 0
M  V30 BEGIN ATOM
M  V30 1 C 0.942800 1.009244 0.000000 0
M  V30 2 C -0.070800 1.379244 0.000000 0
M  V30 3 C -1.076400 1.067644 0.000000 0
M  V30 4 C -1.570200 0.208444 0.000000 0
M  V30 5 C -1.244800 -0.676756 0.000000 0
M  V30 6 C -0.342800 -0.939156 0.000000 0
M  V30 7 C 0.516000 -1.319556 0.000000 0
M  V30 8 C 1.335200 -0.852156 0.000000 0
M  V30 9 C 1.511000 0.123044 0.000000 0
M  V30 END ATOM
M  V30 BEGIN BOND
M  V30 1 1 1 2
M  V30 2 1 2 3
M  V30 3 1 3 4
M  V30 4 1 5 4 CFG=1
M  V30 5 2 5 6
M  V30 6 2 6 7
M  V30 7 1 7 8 CFG=3
M  V30 8 1 8 9
M  V30 9 1 9 1
M  V30 END BOND
M  V30 END CTAB
M  END
>  <ID>
52

>  <OLD>
InChI=1S/C9H14/c1-2-4-6-8-9-7-5-3-1/h1,5H,2,4,6-9H2/t3-/m0/s1

>  <NEW>
InChI=1B/C9H14/c1-2-4-6-8-9-7-5-3-1/h1,5H,2,4,6-9H2/t3-/m0/s1

$$$$
edge: butatriene (even cumulene, E/Z not axial)
     RDKit          2D

  0  0  0  0  0  0  0  0  0  0999 V3000
M  V30 BEGIN CTAB
M  V30 COUNTS 6 5 0 0 0
M  V30 BEGIN ATOM
M  V30 1 Cl 2.165600 -0.245600 0.000000 0
M  V30 2 C 1.300600 -0.747400 0.000000 0
M  V30 3 C 0.433600 -0.249200 0.000000 0
M  V30 4 C -0.433600 0.249200 0.000000 0
M  V30 5 C -1.300600 0.747400 0.000000 0
M  V30 6 Cl -2.165600 0.245600 0.000000 0
M  V30 END ATOM
M  V30 BEGIN BOND
M  V30 1 1 1 2
M  V30 2 2 2 3
M  V30 3 2 3 4
M  V30 4 2 4 5
M  V30 5 1 5 6
M  V30 END BOND
M  V30 END CTAB
M  END
>  <ID>
53

>  <OLD>
InChI=1S/C4H2Cl2/c5-3-1-2-4-6/h3-4H/b4-3+

>  <NEW>
InChI=1B/C4H2Cl2/c5-3-1-2-4-6/h3-4H/b4-3+

$$$$
edge: pentatetraene (odd cumulene, length 4)
     RDKit          2D

  0  0  0  0  0  0  0  0  0  0999 V3000
M  V30 BEGIN CTAB
M  V30 COUNTS 7 6 0 0 0
M  V30 BEGIN ATOM
M  V30 1 Cl 2.599000 -0.494800 0.000000 0
M  V30 2 C 1.734000 -0.996600 0.000000 0
M  V30 3 C 0.867000 -0.498200 0.000000 0
M  V30 4 C 0.000000 0.000000 0.000000 0
M  V30 5 C -0.867000 0.498200 0.000000 0
M  V30 6 C -1.734000 0.996600 0.000000 0
M  V30 7 Cl -2.599000 0.494800 0.000000 0
M  V30 END ATOM
M  V30 BEGIN BOND
M  V30 1 1 2 1 CFG=1
M  V30 2 2 2 3
M  V30 3 2 3 4
M  V30 4 2 4 5
M  V30 5 2 5 6
M  V30 6 1 6 7 CFG=3
M  V30 END BOND
M  V30 END CTAB
M  END
>  <ID>
54

>  <OLD>
InChI=1S/C5H2Cl2/c6-4-2-1-3-5-7/h4-5H

>  <NEW>
InChI=1B/C5H2Cl2/c6-4-2-1-3-5-7/h4-5H

$$$$
