atropisomers_test_file_1_v2.sdf
  ChemDraw03052609263D

 24 25  0  0  0  0  0  0  0  0999 V2000
    1.3190   -1.5230    0.0000 C   0  0  0  0  0  0  0  0  0  0  0  0
    0.0000   -0.7615    0.0000 C   0  0  0  0  0  0  0  0  0  0  0  0
   -1.3190   -1.5230   -0.0000 C   0  0  0  0  0  0  0  0  0  0  0  0
   -1.3190   -3.0460   -0.0000 C   0  0  0  0  0  0  0  0  0  0  0  0
   -0.0000   -3.8075    0.0000 C   0  0  0  0  0  0  0  0  0  0  0  0
    1.3189   -3.0460    0.0000 C   0  0  0  0  0  0  0  0  0  0  0  0
    1.3190    1.5230    0.0000 C   0  0  0  0  0  0  0  0  0  0  0  0
    0.0000    0.7615    0.0000 C   0  0  0  0  0  0  0  0  0  0  0  0
   -1.3189    1.5230    0.0000 C   0  0  0  0  0  0  0  0  0  0  0  0
   -1.3189    3.0460    0.0000 C   0  0  0  0  0  0  0  0  0  0  0  0
    1.3190    3.0460    0.0000 C   0  0  0  0  0  0  0  0  0  0  0  0
    0.0000    3.8075    0.0000 C   0  0  0  0  0  0  0  0  0  0  0  0
    2.6379    0.7615    0.0000 C   0  0  0  0  0  0  0  0  0  0  0  0
    3.9569    1.5230    0.0000 O   0  0  0  0  0  0  0  0  0  0  0  0
    2.6379   -0.7615    0.0000 O   0  0  0  0  0  0  0  0  0  0  0  0
   -2.6379    0.7615    0.0000 N   0  3  0  0  0  0  0  0  0  0  0  0
   -3.9569    1.5230    0.0000 O   0  0  0  0  0  0  0  0  0  0  0  0
   -2.6379   -0.7615    0.0000 O   0  5  0  0  0  0  0  0  0  0  0  0
   -2.6379   -0.7615    0.0000 N   0  3  0  0  0  0  0  0  0  0  0  0
   -2.6379    0.7615    0.0000 O   0  0  0  0  0  0  0  0  0  0  0  0
   -3.9569   -1.5230    0.0000 O   0  5  0  0  0  0  0  0  0  0  0  0
    2.6379   -0.7615    0.0000 C   0  0  0  0  0  0  0  0  0  0  0  0
    2.6379    0.7615    0.0000 O   0  0  0  0  0  0  0  0  0  0  0  0
    3.9569   -1.5230    0.0000 O   0  0  0  0  0  0  0  0  0  0  0  0
 13 14  2  0      
 13 15  1  0      
  7 13  1  0      
 16 17  2  0      
 16 18  1  0      
  9 16  1  0      
 19 20  2  0      
 19 21  1  0      
  3 19  1  0      
 22 23  2  0      
 22 24  1  0      
  1 22  1  0      
  1  6  1  0      
  1  2  2  0      
  2  3  1  1      
  2  8  1  0      
  3  4  2  0      
  5  4  1  1      
  5  6  2  0      
  8  7  1  1      
  7 11  2  0      
  8  9  2  0      
  9 10  1  0      
 10 12  2  0      
 12 11  1  1      
M  CHG  4  16   1  18  -1  19   1  21  -1
M  STY  1   1 SUP
M  SLB  1   1   1
M  SAL   1  3  13  14  15
M  SBL   1  1   3
M  SMT   1 CO2H
M  SBV   1   3   -1.3190    0.7615
M  STY  1   2 SUP
M  SLB  1   2   2
M  SAL   2  3  16  17  18
M  SBL   2  1   6
M  SMT   2 NO2
M  SBV   2   6    1.3190    0.7615
M  STY  1   3 SUP
M  SLB  1   3   3
M  SAL   3  3  19  20  21
M  SBL   3  1   9
M  SMT   3 NO2
M  SBV   3   9    1.3190   -0.7615
M  STY  1   4 SUP
M  SLB  1   4   4
M  SAL   4  3  22  23  24
M  SBL   4  1  12
M  SMT   4 CO2H
M  SBV   4  12   -1.3190   -0.7615
M  END
>  <ID>
80

>  <OLD>
InChI=1S/C14H8N2O8/c17-13(18)7-3-1-5-9(15(21)22)11(7)12-8(14(19)20)4-2-6-10(12)16(23)24/h1-6H,(H,17,18)(H,19,20)

>  <NEW>
InChI=1B/C14H8N2O8/c17-13(18)7-3-1-5-9(15(21)22)11(7)12-8(14(19)20)4-2-6-10(12)16(23)24/h1-6H,(H,17,18)(H,19,20)/t11-/m0/s1

$$$$
atropisomers_test_file_1_v2.sdf
  ChemDraw03052609263D

 24 25  0  0  0  0  0  0  0  0999 V2000
   -1.3190   -1.5230   -0.0000 C   0  0  0  0  0  0  0  0  0  0  0  0
   -0.0000   -0.7615    0.0000 C   0  0  0  0  0  0  0  0  0  0  0  0
    1.3190   -1.5230    0.0000 C   0  0  0  0  0  0  0  0  0  0  0  0
    1.3190   -3.0460    0.0000 C   0  0  0  0  0  0  0  0  0  0  0  0
    0.0000   -3.8075    0.0000 C   0  0  0  0  0  0  0  0  0  0  0  0
   -1.3189   -3.0460   -0.0000 C   0  0  0  0  0  0  0  0  0  0  0  0
   -1.3190    1.5230    0.0000 C   0  0  0  0  0  0  0  0  0  0  0  0
   -0.0000    0.7615    0.0000 C   0  0  0  0  0  0  0  0  0  0  0  0
    1.3189    1.5230    0.0000 C   0  0  0  0  0  0  0  0  0  0  0  0
    1.3189    3.0460    0.0000 C   0  0  0  0  0  0  0  0  0  0  0  0
   -1.3190    3.0460    0.0000 C   0  0  0  0  0  0  0  0  0  0  0  0
   -0.0000    3.8075    0.0000 C   0  0  0  0  0  0  0  0  0  0  0  0
   -2.6379    0.7615    0.0000 C   0  0  0  0  0  0  0  0  0  0  0  0
   -2.6379   -0.7615    0.0000 O   0  0  0  0  0  0  0  0  0  0  0  0
   -3.9569    1.5230    0.0000 O   0  0  0  0  0  0  0  0  0  0  0  0
    2.6379    0.7615    0.0000 N   0  3  0  0  0  0  0  0  0  0  0  0
    2.6379   -0.7615    0.0000 O   0  0  0  0  0  0  0  0  0  0  0  0
    3.9569    1.5230    0.0000 O   0  5  0  0  0  0  0  0  0  0  0  0
    2.6379   -0.7615    0.0000 N   0  3  0  0  0  0  0  0  0  0  0  0
    3.9569   -1.5230    0.0000 O   0  0  0  0  0  0  0  0  0  0  0  0
    2.6379    0.7615    0.0000 O   0  5  0  0  0  0  0  0  0  0  0  0
   -2.6379   -0.7615    0.0000 C   0  0  0  0  0  0  0  0  0  0  0  0
   -3.9569   -1.5230    0.0000 O   0  0  0  0  0  0  0  0  0  0  0  0
   -2.6379    0.7615    0.0000 O   0  0  0  0  0  0  0  0  0  0  0  0
 13 14  2  0      
 13 15  1  0      
  7 13  1  0      
 16 17  2  0      
 16 18  1  0      
  9 16  1  0      
 19 20  2  0      
 19 21  1  0      
  3 19  1  0      
 22 23  2  0      
 22 24  1  0      
  1 22  1  0      
  1  6  1  0      
  1  2  2  0      
  2  3  1  1      
  2  8  1  0      
  3  4  2  0      
  5  4  1  1      
  5  6  2  0      
  8  7  1  1      
  7 11  2  0      
  8  9  2  0      
  9 10  1  0      
 10 12  2  0      
 12 11  1  1      
M  CHG  4  16   1  18  -1  19   1  21  -1
M  STY  1   1 SUP
M  SLB  1   1   1
M  SAL   1  3  13  14  15
M  SBL   1  1   3
M  SMT   1 CO2H
M  SBV   1   3    1.3190    0.7615
M  STY  1   2 SUP
M  SLB  1   2   2
M  SAL   2  3  16  17  18
M  SBL   2  1   6
M  SMT   2 NO2
M  SBV   2   6   -1.3190    0.7615
M  STY  1   3 SUP
M  SLB  1   3   3
M  SAL   3  3  19  20  21
M  SBL   3  1   9
M  SMT   3 NO2
M  SBV   3   9   -1.3190   -0.7615
M  STY  1   4 SUP
M  SLB  1   4   4
M  SAL   4  3  22  23  24
M  SBL   4  1  12
M  SMT   4 CO2H
M  SBV   4  12    1.3190   -0.7615
M  END
>  <ID>
81

>  <OLD>
InChI=1S/C14H8N2O8/c17-13(18)7-3-1-5-9(15(21)22)11(7)12-8(14(19)20)4-2-6-10(12)16(23)24/h1-6H,(H,17,18)(H,19,20)

>  <NEW>
InChI=1B/C14H8N2O8/c17-13(18)7-3-1-5-9(15(21)22)11(7)12-8(14(19)20)4-2-6-10(12)16(23)24/h1-6H,(H,17,18)(H,19,20)/t11-/m1/s1

$$$$
atropisomers_test_file_1_v2.sdf
  ChemDraw03052609263D

 16 17  0  0  0  0  0  0  0  0999 V2000
   -1.3190   -1.5230   -0.0000 C   0  0  0  0  0  0  0  0  0  0  0  0
    0.0000   -0.7615    0.0000 C   0  0  0  0  0  0  0  0  0  0  0  0
    1.3190   -1.5230    0.0000 C   0  0  0  0  0  0  0  0  0  0  0  0
    1.3190   -3.0460    0.0000 C   0  0  0  0  0  0  0  0  0  0  0  0
    0.0000   -3.8075    0.0000 C   0  0  0  0  0  0  0  0  0  0  0  0
   -1.3190   -3.0460   -0.0000 C   0  0  0  0  0  0  0  0  0  0  0  0
    1.3190    1.5230    0.0000 C   0  0  0  0  0  0  0  0  0  0  0  0
    0.0000    0.7615    0.0000 C   0  0  0  0  0  0  0  0  0  0  0  0
   -1.3189    1.5230    0.0000 C   0  0  0  0  0  0  0  0  0  0  0  0
   -1.3189    3.0460    0.0000 C   0  0  0  0  0  0  0  0  0  0  0  0
    1.3190    3.0460    0.0000 C   0  0  0  0  0  0  0  0  0  0  0  0
    0.0000    3.8075    0.0000 C   0  0  0  0  0  0  0  0  0  0  0  0
    2.6379    0.7615    0.0000 Br  0  0  0  0  0  0  0  0  0  0  0  0
   -2.6379    0.7615    0.0000 Cl  0  0  0  0  0  0  0  0  0  0  0  0
    2.6379   -0.7615    0.0000 Cl  0  0  0  0  0  0  0  0  0  0  0  0
   -2.6379   -0.7615   -0.0000 Br  0  0  0  0  0  0  0  0  0  0  0  0
  1  6  1  0      
  1  2  2  0      
  1 16  1  0      
  2  3  1  0      
  2  8  1  0      
  3  4  2  0      
  3 15  1  0      
  4  5  1  0      
  5  6  2  0      
  7  8  2  0      
  7 11  1  0      
  7 13  1  0      
  8  9  1  1      
  9 10  2  0      
  9 14  1  0      
 10 12  1  0      
 11 12  2  0      
M  END
>  <ID>
82

>  <OLD>
InChI=1S/C12H6Br2Cl2/c13-7-3-1-5-9(15)11(7)12-8(14)4-2-6-10(12)16/h1-6H

>  <NEW>
InChI=1B/C12H6Br2Cl2/c13-7-3-1-5-9(15)11(7)12-8(14)4-2-6-10(12)16/h1-6H/t11-/m0/s1

$$$$
atropisomers_test_file_1_v2.sdf
  ChemDraw03052609263D

 16 17  0  0  0  0  0  0  0  0999 V2000
   -1.3190   -1.5230   -0.0000 C   0  0  0  0  0  0  0  0  0  0  0  0
    0.0000   -0.7615    0.0000 C   0  0  0  0  0  0  0  0  0  0  0  0
    1.3190   -1.5230    0.0000 C   0  0  0  0  0  0  0  0  0  0  0  0
    1.3190   -3.0460    0.0000 C   0  0  0  0  0  0  0  0  0  0  0  0
    0.0000   -3.8075    0.0000 C   0  0  0  0  0  0  0  0  0  0  0  0
   -1.3190   -3.0460   -0.0000 C   0  0  0  0  0  0  0  0  0  0  0  0
    1.3190    1.5230    0.0000 C   0  0  0  0  0  0  0  0  0  0  0  0
    0.0000    0.7615    0.0000 C   0  0  0  0  0  0  0  0  0  0  0  0
   -1.3189    1.5230    0.0000 C   0  0  0  0  0  0  0  0  0  0  0  0
   -1.3189    3.0460    0.0000 C   0  0  0  0  0  0  0  0  0  0  0  0
    1.3190    3.0460    0.0000 C   0  0  0  0  0  0  0  0  0  0  0  0
    0.0000    3.8075    0.0000 C   0  0  0  0  0  0  0  0  0  0  0  0
    2.6379    0.7615    0.0000 Br  0  0  0  0  0  0  0  0  0  0  0  0
   -2.6379    0.7615    0.0000 Cl  0  0  0  0  0  0  0  0  0  0  0  0
    2.6379   -0.7615    0.0000 Cl  0  0  0  0  0  0  0  0  0  0  0  0
   -2.6379   -0.7615   -0.0000 Br  0  0  0  0  0  0  0  0  0  0  0  0
  1  6  1  0      
  1  2  2  0      
  1 16  1  0      
  2  3  1  0      
  2  8  1  0      
  3  4  2  0      
  3 15  1  0      
  4  5  1  0      
  5  6  2  0      
  8  7  1  6      
  7 11  2  0      
  7 13  1  0      
  8  9  2  0      
  9 10  1  0      
  9 14  1  0      
 10 12  2  0      
 11 12  1  0      
M  END
>  <ID>
83

>  <OLD>
InChI=1S/C12H6Br2Cl2/c13-7-3-1-5-9(15)11(7)12-8(14)4-2-6-10(12)16/h1-6H

>  <NEW>
InChI=1B/C12H6Br2Cl2/c13-7-3-1-5-9(15)11(7)12-8(14)4-2-6-10(12)16/h1-6H/t11-/m0/s1

$$$$
atropisomers_test_file_1_v2.sdf
  ChemDraw03052609263D

 16 17  0  0  0  0  0  0  0  0999 V2000
    1.3190   -1.5230    0.0000 C   0  0  0  0  0  0  0  0  0  0  0  0
   -0.0000   -0.7615    0.0000 C   0  0  0  0  0  0  0  0  0  0  0  0
   -1.3190   -1.5230   -0.0000 C   0  0  0  0  0  0  0  0  0  0  0  0
   -1.3190   -3.0460   -0.0000 C   0  0  0  0  0  0  0  0  0  0  0  0
   -0.0000   -3.8075    0.0000 C   0  0  0  0  0  0  0  0  0  0  0  0
    1.3189   -3.0460    0.0000 C   0  0  0  0  0  0  0  0  0  0  0  0
    1.3190    1.5230    0.0000 C   0  0  0  0  0  0  0  0  0  0  0  0
    0.0000    0.7615    0.0000 C   0  0  0  0  0  0  0  0  0  0  0  0
   -1.3189    1.5230    0.0000 C   0  0  0  0  0  0  0  0  0  0  0  0
   -1.3189    3.0460    0.0000 C   0  0  0  0  0  0  0  0  0  0  0  0
    1.3190    3.0460    0.0000 C   0  0  0  0  0  0  0  0  0  0  0  0
    0.0000    3.8075    0.0000 C   0  0  0  0  0  0  0  0  0  0  0  0
    2.6379    0.7615    0.0000 Br  0  0  0  0  0  0  0  0  0  0  0  0
   -2.6379    0.7615    0.0000 Cl  0  0  0  0  0  0  0  0  0  0  0  0
   -2.6379   -0.7615   -0.0000 Cl  0  0  0  0  0  0  0  0  0  0  0  0
    2.6379   -0.7615    0.0000 Br  0  0  0  0  0  0  0  0  0  0  0  0
  1  6  1  0      
  1  2  2  0      
  1 16  1  0      
  2  3  1  0      
  2  8  1  0      
  3  4  2  0      
  3 15  1  0      
  4  5  1  0      
  5  6  2  0      
  8  7  1  6      
  7 11  2  0      
  7 13  1  0      
  8  9  2  0      
  9 10  1  0      
  9 14  1  0      
 10 12  2  0      
 11 12  1  0      
M  END
>  <ID>
84

>  <OLD>
InChI=1S/C12H6Br2Cl2/c13-7-3-1-5-9(15)11(7)12-8(14)4-2-6-10(12)16/h1-6H

>  <NEW>
InChI=1B/C12H6Br2Cl2/c13-7-3-1-5-9(15)11(7)12-8(14)4-2-6-10(12)16/h1-6H/t11-/m1/s1

$$$$
biaryl dihedral 44
  gen3d

 16 17  0  0  0  0  0  0  0  0999 V2000
   -0.7400    0.0000    0.0000 C   0  0  0  0  0  0  0  0  0  0  0  0
   -1.4400    1.1242   -0.4542 C   0  0  0  0  0  0  0  0  0  0  0  0
   -2.8400    1.1242   -0.4542 C   0  0  0  0  0  0  0  0  0  0  0  0
   -3.5400    0.0000   -0.0000 C   0  0  0  0  0  0  0  0  0  0  0  0
   -2.8400   -1.1242    0.4542 C   0  0  0  0  0  0  0  0  0  0  0  0
   -1.4400   -1.1242    0.4542 C   0  0  0  0  0  0  0  0  0  0  0  0
   -0.5150    2.6096   -1.0544 Br  0  0  0  0  0  0  0  0  0  0  0  0
   -0.5150   -2.6096    1.0544 Cl  0  0  0  0  0  0  0  0  0  0  0  0
    0.7400    0.0000    0.0000 C   0  0  0  0  0  0  0  0  0  0  0  0
    1.4400    1.1242    0.4542 C   0  0  0  0  0  0  0  0  0  0  0  0
    2.8400    1.1242    0.4542 C   0  0  0  0  0  0  0  0  0  0  0  0
    3.5400    0.0000    0.0000 C   0  0  0  0  0  0  0  0  0  0  0  0
    2.8400   -1.1242   -0.4542 C   0  0  0  0  0  0  0  0  0  0  0  0
    1.4400   -1.1242   -0.4542 C   0  0  0  0  0  0  0  0  0  0  0  0
    0.5150    2.6096    1.0544 Br  0  0  0  0  0  0  0  0  0  0  0  0
    0.5150   -2.6096   -1.0544 Cl  0  0  0  0  0  0  0  0  0  0  0  0
  1  2  2  0  0  0  0
  2  3  1  0  0  0  0
  3  4  2  0  0  0  0
  4  5  1  0  0  0  0
  5  6  2  0  0  0  0
  6  1  1  0  0  0  0
  2  7  1  0  0  0  0
  6  8  1  0  0  0  0
  9 10  2  0  0  0  0
 10 11  1  0  0  0  0
 11 12  2  0  0  0  0
 12 13  1  0  0  0  0
 13 14  2  0  0  0  0
 14  9  1  0  0  0  0
 10 15  1  0  0  0  0
 14 16  1  0  0  0  0
  1  9  1  0  0  0  0
M  END
>  <ID>
85

>  <OLD>
InChI=1S/C12H6Br2Cl2/c13-7-3-1-5-9(15)11(7)12-8(14)4-2-6-10(12)16/h1-6H

>  <NEW>
InChI=1B/C12H6Br2Cl2/c13-7-3-1-5-9(15)11(7)12-8(14)4-2-6-10(12)16/h1-6H/t11-/m1/s1

$$$$
biaryl dihedral -44
  gen3d

 16 17  0  0  0  0  0  0  0  0999 V2000
   -0.7400    0.0000    0.0000 C   0  0  0  0  0  0  0  0  0  0  0  0
   -1.4400    1.1242    0.4542 C   0  0  0  0  0  0  0  0  0  0  0  0
   -2.8400    1.1242    0.4542 C   0  0  0  0  0  0  0  0  0  0  0  0
   -3.5400    0.0000    0.0000 C   0  0  0  0  0  0  0  0  0  0  0  0
   -2.8400   -1.1242   -0.4542 C   0  0  0  0  0  0  0  0  0  0  0  0
   -1.4400   -1.1242   -0.4542 C   0  0  0  0  0  0  0  0  0  0  0  0
   -0.5150    2.6096    1.0544 Br  0  0  0  0  0  0  0  0  0  0  0  0
   -0.5150   -2.6096   -1.0544 Cl  0  0  0  0  0  0  0  0  0  0  0  0
    0.7400    0.0000    0.0000 C   0  0  0  0  0  0  0  0  0  0  0  0
    1.4400    1.1242   -0.4542 C   0  0  0  0  0  0  0  0  0  0  0  0
    2.8400    1.1242   -0.4542 C   0  0  0  0  0  0  0  0  0  0  0  0
    3.5400    0.0000   -0.0000 C   0  0  0  0  0  0  0  0  0  0  0  0
    2.8400   -1.1242    0.4542 C   0  0  0  0  0  0  0  0  0  0  0  0
    1.4400   -1.1242    0.4542 C   0  0  0  0  0  0  0  0  0  0  0  0
    0.5150    2.6096   -1.0544 Br  0  0  0  0  0  0  0  0  0  0  0  0
    0.5150   -2.6096    1.0544 Cl  0  0  0  0  0  0  0  0  0  0  0  0
  1  2  2  0  0  0  0
  2  3  1  0  0  0  0
  3  4  2  0  0  0  0
  4  5  1  0  0  0  0
  5  6  2  0  0  0  0
  6  1  1  0  0  0  0
  2  7  1  0  0  0  0
  6  8  1  0  0  0  0
  9 10  2  0  0  0  0
 10 11  1  0  0  0  0
 11 12  2  0  0  0  0
 12 13  1  0  0  0  0
 13 14  2  0  0  0  0
 14  9  1  0  0  0  0
 10 15  1  0  0  0  0
 14 16  1  0  0  0  0
  1  9  1  0  0  0  0
M  END
>  <ID>
86

>  <OLD>
InChI=1S/C12H6Br2Cl2/c13-7-3-1-5-9(15)11(7)12-8(14)4-2-6-10(12)16/h1-6H

>  <NEW>
InChI=1B/C12H6Br2Cl2/c13-7-3-1-5-9(15)11(7)12-8(14)4-2-6-10(12)16/h1-6H/t11-/m0/s1

$$$$
atropisomer test mol                                                                  
  Ketcher  2192614182D 1   1.00000     0.00000     0                      
                                                                          
 16 17  0  0  1  0  0  0  0  0999 V2000                                   
    6.7160   -7.9750    0.0000 C   0  0  0  0  0  0  0  0  0  0  0  0     
    5.8500   -7.4750    0.0000 C   0  0  0  0  0  0  0  0  0  0  0  0     
    4.9840   -7.9750    0.0000 C   0  0  0  0  0  0  0  0  0  0  0  0     
    4.9840   -8.9750    0.0000 C   0  0  0  0  0  0  0  0  0  0  0  0     
    5.8500   -9.4750    0.0000 C   0  0  0  0  0  0  0  0  0  0  0  0     
    6.7160   -8.9750    0.0000 C   0  0  0  0  0  0  0  0  0  0  0  0     
    6.7160   -5.9750    0.0000 C   0  0  0  0  0  0  0  0  0  0  0  0     
    5.8500   -6.4750    0.0000 C   0  0  0  0  0  0  0  0  0  0  0  0     
    4.9840   -5.9750    0.0000 C   0  0  0  0  0  0  0  0  0  0  0  0     
    4.9840   -4.9750    0.0000 C   0  0  0  0  0  0  0  0  0  0  0  0     
    6.7160   -4.9750    0.0000 C   0  0  0  0  0  0  0  0  0  0  0  0     
    5.8500   -4.4750    0.0000 C   0  0  0  0  0  0  0  0  0  0  0  0     
    7.5821   -6.4750    0.0000 Br  0  0  0  0  0  0  0  0  0  0  0  0     
    4.1179   -6.4750    0.0000 Cl  0  0  0  0  0  0  0  0  0  0  0  0     
    4.1179   -7.4749    0.0000 Cl  0  0  0  0  0  0  0  0  0  0  0  0     
    7.5821   -7.4750    0.0000 Br  0  0  0  0  0  0  0  0  0  0  0  0     
  1  6  1  0  0  0  0                                                     
  1  2  2  0  0  0  0                                                     
  2  3  1  1  0  0  0                                                     
  2  8  1  0  0  0  0                                                     
  3  4  2  0  0  0  0                                                     
  5  4  1  0  0  0  0                                                     
  5  6  2  0  0  0  0                                                     
  8  7  1  1  0  0  0                                                     
  7 11  2  0  0  0  0                                                     
  8  9  2  0  0  0  0                                                     
  9 10  1  0  0  0  0                                                     
 10 12  2  0  0  0  0                                                     
 12 11  1  0  0  0  0                                                     
  7 13  1  0  0  0  0                                                     
  9 14  1  0  0  0  0                                                     
  3 15  1  0  0  0  0                                                     
  1 16  1  0  0  0  0                                                     
M  END                                                                    
>  <ID>
87

>  <OLD>
InChI=1S/C12H6Br2Cl2/c13-7-3-1-5-9(15)11(7)12-8(14)4-2-6-10(12)16/h1-6H

>  <NEW>
InChI=1B/C12H6Br2Cl2/c13-7-3-1-5-9(15)11(7)12-8(14)4-2-6-10(12)16/h1-6H/t11-/m0/s1

$$$$
atropisomer test mol                                                                  
  Ketcher  2192614182D 1   1.00000     0.00000     0                      
                                                                          
 16 17  0  0  1  0  0  0  0  0999 V2000                                   
    6.7160   -7.9750    0.0000 C   0  0  0  0  0  0  0  0  0  0  0  0     
    5.8500   -7.4750    0.0000 C   0  0  0  0  0  0  0  0  0  0  0  0     
    4.9840   -7.9750    0.0000 C   0  0  0  0  0  0  0  0  0  0  0  0     
    4.9840   -8.9750    0.0000 C   0  0  0  0  0  0  0  0  0  0  0  0     
    5.8500   -9.4750    0.0000 C   0  0  0  0  0  0  0  0  0  0  0  0     
    6.7160   -8.9750    0.0000 C   0  0  0  0  0  0  0  0  0  0  0  0     
    6.7160   -5.9750    0.0000 C   0  0  0  0  0  0  0  0  0  0  0  0     
    5.8500   -6.4750    0.0000 C   0  0  0  0  0  0  0  0  0  0  0  0     
    4.9840   -5.9750    0.0000 C   0  0  0  0  0  0  0  0  0  0  0  0     
    4.9840   -4.9750    0.0000 C   0  0  0  0  0  0  0  0  0  0  0  0     
    6.7160   -4.9750    0.0000 C   0  0  0  0  0  0  0  0  0  0  0  0     
    5.8500   -4.4750    0.0000 C   0  0  0  0  0  0  0  0  0  0  0  0     
    7.5821   -6.4750    0.0000 Br  0  0  0  0  0  0  0  0  0  0  0  0     
    4.1179   -6.4750    0.0000 Cl  0  0  0  0  0  0  0  0  0  0  0  0     
    4.1179   -7.4749    0.0000 Cl  0  0  0  0  0  0  0  0  0  0  0  0     
    7.5821   -7.4750    0.0000 Br  0  0  0  0  0  0  0  0  0  0  0  0     
  1  6  1  0  0  0  0                                                     
  1  2  2  0  0  0  0                                                     
  2  3  1  1  0  0  0                                                     
  2  8  1  0  0  0  0                                                     
  3  4  2  0  0  0  0                                                     
  5  4  1  0  0  0  0                                                     
  5  6  2  0  0  0  0                                                     
  8  7  1  0  0  0  0                                                     
  7 11  2  0  0  0  0                                                     
  8  9  2  0  0  0  0                                                     
  9 10  1  0  0  0  0                                                     
 10 12  2  0  0  0  0                                                     
 12 11  1  0  0  0  0                                                     
  7 13  1  0  0  0  0                                                     
  9 14  1  0  0  0  0                                                     
  3 15  1  0  0  0  0                                                     
  1 16  1  0  0  0  0                                                     
M  END                                                                    
>  <ID>
88

>  <OLD>
InChI=1S/C12H6Br2Cl2/c13-7-3-1-5-9(15)11(7)12-8(14)4-2-6-10(12)16/h1-6H

>  <NEW>
InChI=1B/C12H6Br2Cl2/c13-7-3-1-5-9(15)11(7)12-8(14)4-2-6-10(12)16/h1-6H/t11-/m0/s1

$$$$
atropisomer test mol                                                                  
  Ketcher  2192614182D 1   1.00000     0.00000     0                      
                                                                          
 16 17  0  0  1  0  0  0  0  0999 V2000                                   
    6.7160   -7.9750    0.0000 C   0  0  0  0  0  0  0  0  0  0  0  0     
    5.8500   -7.4750    0.0000 C   0  0  0  0  0  0  0  0  0  0  0  0     
    4.9840   -7.9750    0.0000 C   0  0  0  0  0  0  0  0  0  0  0  0     
    4.9840   -8.9750    0.0000 C   0  0  0  0  0  0  0  0  0  0  0  0     
    5.8500   -9.4750    0.0000 C   0  0  0  0  0  0  0  0  0  0  0  0     
    6.7160   -8.9750    0.0000 C   0  0  0  0  0  0  0  0  0  0  0  0     
    6.7160   -5.9750    0.0000 C   0  0  0  0  0  0  0  0  0  0  0  0     
    5.8500   -6.4750    0.0000 C   0  0  0  0  0  0  0  0  0  0  0  0     
    4.9840   -5.9750    0.0000 C   0  0  0  0  0  0  0  0  0  0  0  0     
    4.9840   -4.9750    0.0000 C   0  0  0  0  0  0  0  0  0  0  0  0     
    6.7160   -4.9750    0.0000 C   0  0  0  0  0  0  0  0  0  0  0  0     
    5.8500   -4.4750    0.0000 C   0  0  0  0  0  0  0  0  0  0  0  0     
    7.5821   -6.4750    0.0000 Br  0  0  0  0  0  0  0  0  0  0  0  0     
    4.1179   -6.4750    0.0000 Cl  0  0  0  0  0  0  0  0  0  0  0  0     
    4.1179   -7.4749    0.0000 Cl  0  0  0  0  0  0  0  0  0  0  0  0     
    7.5821   -7.4750    0.0000 Br  0  0  0  0  0  0  0  0  0  0  0  0     
  1  6  1  0  0  0  0                                                     
  1  2  2  0  0  0  0                                                     
  2  3  1  0  0  0  0                                                     
  2  8  1  0  0  0  0                                                     
  3  4  2  0  0  0  0                                                     
  5  4  1  0  0  0  0                                                     
  5  6  2  0  0  0  0                                                     
  8  7  1  0  0  0  0                                                     
  7 11  2  0  0  0  0                                                     
  8  9  2  0  0  0  0                                                     
  9 10  1  0  0  0  0                                                     
 10 12  2  0  0  0  0                                                     
 12 11  1  0  0  0  0                                                     
  7 13  1  0  0  0  0                                                     
  9 14  1  0  0  0  0                                                     
  3 15  1  0  0  0  0                                                     
  1 16  1  0  0  0  0                                                     
M  END                                                                    
>  <ID>
89

>  <OLD>
InChI=1S/C12H6Br2Cl2/c13-7-3-1-5-9(15)11(7)12-8(14)4-2-6-10(12)16/h1-6H

>  <NEW>
InChI=1B/C12H6Br2Cl2/c13-7-3-1-5-9(15)11(7)12-8(14)4-2-6-10(12)16/h1-6H

$$$$
test_mol_atropisomer_1                        
  -INDIGO-02052611532D                       
                                             
  0  0  0  0  0  0  0  0  0  0  0 V3000      
M  V30 BEGIN CTAB                            
M  V30 COUNTS 16 17 0 0 0                    
M  V30 BEGIN ATOM                            
M  V30 1 C 6.11597 -6.27499 0.0 0            
M  V30 2 C 5.24996 -5.775 0.0 0              
M  V30 3 C 4.38395 -6.27499 0.0 0            
M  V30 4 C 4.38395 -7.27499 0.0 0            
M  V30 5 C 5.24996 -7.77498 0.0 0            
M  V30 6 C 6.11597 -7.27499 0.0 0            
M  V30 7 C 6.11605 -4.27501 0.0 0            
M  V30 8 C 5.24996 -4.775 0.0 0              
M  V30 9 C 4.38395 -4.27501 0.0 0            
M  V30 10 C 4.38395 -3.27501 0.0 0           
M  V30 11 C 6.11605 -3.27501 0.0 0           
M  V30 12 C 5.25004 -2.77502 0.0 0           
M  V30 13 Br 6.98205 -4.775 0.0 0            
M  V30 14 Cl 3.51795 -4.775 0.0 0            
M  V30 15 Cl 3.51795 -5.77492 0.0 0          
M  V30 16 Br 6.98205 -5.775 0.0 0            
M  V30 END ATOM                              
M  V30 BEGIN BOND                            
M  V30 1 1 1 6                               
M  V30 2 2 1 2                               
M  V30 3 1 2 3 CFG=1                         
M  V30 4 1 2 8                               
M  V30 5 2 3 4                               
M  V30 6 1 5 4                               
M  V30 7 2 5 6                               
M  V30 8 1 8 7 CFG=1                         
M  V30 9 2 7 11                              
M  V30 10 2 8 9                              
M  V30 11 1 9 10                             
M  V30 12 2 10 12                            
M  V30 13 1 12 11                            
M  V30 14 1 7 13                             
M  V30 15 1 9 14                             
M  V30 16 1 3 15                             
M  V30 17 1 1 16                             
M  V30 END BOND                              
M  V30 BEGIN COLLECTION                      
M  V30 MDLV30/STEABS ATOMS=(2 2 8)           
M  V30 END COLLECTION                        
M  V30 END CTAB                              
M  END                                       
>  <ID>
90

>  <OLD>
InChI=1S/C12H6Br2Cl2/c13-7-3-1-5-9(15)11(7)12-8(14)4-2-6-10(12)16/h1-6H

>  <NEW>
InChI=1B/C12H6Br2Cl2/c13-7-3-1-5-9(15)11(7)12-8(14)4-2-6-10(12)16/h1-6H/t11-/m0/s1

$$$$
test_mol_atropisomer_1                        
  -INDIGO-02052611532D                       
                                             
  0  0  0  0  0  0  0  0  0  0  0 V3000      
M  V30 BEGIN CTAB                            
M  V30 COUNTS 16 17 0 0 0                    
M  V30 BEGIN ATOM                            
M  V30 1 C 6.11597 -6.27499 0.0 0            
M  V30 2 C 5.24996 -5.775 0.0 0              
M  V30 3 C 4.38395 -6.27499 0.0 0            
M  V30 4 C 4.38395 -7.27499 0.0 0            
M  V30 5 C 5.24996 -7.77498 0.0 0            
M  V30 6 C 6.11597 -7.27499 0.0 0            
M  V30 7 C 6.11605 -4.27501 0.0 0            
M  V30 8 C 5.24996 -4.775 0.0 0              
M  V30 9 C 4.38395 -4.27501 0.0 0            
M  V30 10 C 4.38395 -3.27501 0.0 0           
M  V30 11 C 6.11605 -3.27501 0.0 0           
M  V30 12 C 5.25004 -2.77502 0.0 0           
M  V30 13 Br 6.98205 -4.775 0.0 0            
M  V30 14 Cl 3.51795 -4.775 0.0 0            
M  V30 15 Cl 3.51795 -5.77492 0.0 0          
M  V30 16 Br 6.98205 -5.775 0.0 0            
M  V30 END ATOM                              
M  V30 BEGIN BOND                            
M  V30 1 1 1 6                               
M  V30 2 2 1 2                               
M  V30 3 1 2 3 CFG=1                         
M  V30 4 1 2 8                               
M  V30 5 2 3 4                               
M  V30 6 1 5 4                               
M  V30 7 2 5 6                               
M  V30 8 1 8 7 CFG=1                         
M  V30 9 2 7 11                              
M  V30 10 2 8 9                              
M  V30 11 1 9 10                             
M  V30 12 2 10 12                            
M  V30 13 1 12 11                            
M  V30 14 1 7 13                             
M  V30 15 1 9 14                             
M  V30 16 1 3 15                             
M  V30 17 1 1 16                             
M  V30 END BOND                              
M  V30 BEGIN COLLECTION                      
M  V30 MDLV30/STERAC1 ATOMS=(2 2 8)           
M  V30 END COLLECTION                        
M  V30 END CTAB                              
M  END                                       
>  <ID>
91

>  <OLD>
InChI=1S/C12H6Br2Cl2/c13-7-3-1-5-9(15)11(7)12-8(14)4-2-6-10(12)16/h1-6H

>  <NEW>
InChI=1B/C12H6Br2Cl2/c13-7-3-1-5-9(15)11(7)12-8(14)4-2-6-10(12)16/h1-6H/t11-/s3

$$$$
atropisomers_test_file_1_v2.sdf
  ChemDraw03052609263D

 16 17  0  0  0  0  0  0  0  0999 V2000
    1.3190   -1.5230    0.0000 C   0  0  0  0  0  0  0  0  0  0  0  0
   -0.0000   -0.7615    0.0000 C   0  0  0  0  0  0  0  0  0  0  0  0
   -1.3190   -1.5230   -0.0000 C   0  0  0  0  0  0  0  0  0  0  0  0
   -1.3190   -3.0460   -0.0000 C   0  0  0  0  0  0  0  0  0  0  0  0
   -0.0000   -3.8075    0.0000 C   0  0  0  0  0  0  0  0  0  0  0  0
    1.3189   -3.0460    0.0000 C   0  0  0  0  0  0  0  0  0  0  0  0
    1.3190    1.5230    0.0000 C   0  0  0  0  0  0  0  0  0  0  0  0
    0.0000    0.7615    0.0000 C   0  0  0  0  0  0  0  0  0  0  0  0
   -1.3189    1.5230    0.0000 C   0  0  0  0  0  0  0  0  0  0  0  0
   -1.3189    3.0460    0.0000 C   0  0  0  0  0  0  0  0  0  0  0  0
    1.3190    3.0460    0.0000 C   0  0  0  0  0  0  0  0  0  0  0  0
    0.0000    3.8075    0.0000 C   0  0  0  0  0  0  0  0  0  0  0  0
    2.6379    0.7615    0.0000 Br  0  0  0  0  0  0  0  0  0  0  0  0
   -2.6379    0.7615    0.0000 Cl  0  0  0  0  0  0  0  0  0  0  0  0
   -2.6379   -0.7615   -0.0000 Cl  0  0  0  0  0  0  0  0  0  0  0  0
    2.6379   -0.7615    0.0000 Br  0  0  0  0  0  0  0  0  0  0  0  0
  1  6  1  0      
  1  2  2  0      
  1 16  1  0      
  2  3  1  1      
  2  8  1  0      
  3  4  2  0      
  3 15  1  0      
  4  5  1  0      
  5  6  2  0      
  7  8  2  0      
  7 11  1  0      
  7 13  1  0      
  8  9  1  1      
  9 10  2  0      
  9 14  1  0      
 10 12  1  0      
 11 12  2  0      
M  END
>  <ID>
92

>  <OLD>
InChI=1S/C12H6Br2Cl2/c13-7-3-1-5-9(15)11(7)12-8(14)4-2-6-10(12)16/h1-6H

>  <NEW>
InChI=1B/C12H6Br2Cl2/c13-7-3-1-5-9(15)11(7)12-8(14)4-2-6-10(12)16/h1-6H

$$$$
atropisomers_test_file_1_v2.sdf
  ChemDraw03052609263D

 22 25  0  0  0  0  0  0  0  0999 V2000
    3.2974   -0.7615    0.0000 O   0  0  0  0  0  0  0  0  0  0  0  0
    1.9784   -1.5230    0.0000 C   0  0  0  0  0  0  0  0  0  0  0  0
    0.6595   -0.7615    0.0000 C   0  0  0  0  0  0  0  0  0  0  0  0
   -0.6595   -1.5230   -0.0000 C   0  0  0  0  0  0  0  0  0  0  0  0
   -0.6595   -3.0460   -0.0000 C   0  0  0  0  0  0  0  0  0  0  0  0
    0.6595   -3.8075    0.0000 C   0  0  0  0  0  0  0  0  0  0  0  0
    1.9784   -3.0460    0.0000 C   0  0  0  0  0  0  0  0  0  0  0  0
    3.2974    0.7615    0.0000 O   0  0  0  0  0  0  0  0  0  0  0  0
    1.9784    1.5230    0.0000 C   0  0  0  0  0  0  0  0  0  0  0  0
    0.6595    0.7615    0.0000 C   0  0  0  0  0  0  0  0  0  0  0  0
   -0.6595    1.5230    0.0000 C   0  0  0  0  0  0  0  0  0  0  0  0
   -0.6595    3.0460    0.0000 C   0  0  0  0  0  0  0  0  0  0  0  0
   -1.9784    3.8075    0.0000 C   0  0  0  0  0  0  0  0  0  0  0  0
   -3.2974    3.0460    0.0000 C   0  0  0  0  0  0  0  0  0  0  0  0
   -3.2974    1.5230    0.0000 C   0  0  0  0  0  0  0  0  0  0  0  0
   -1.9784    0.7615    0.0000 C   0  0  0  0  0  0  0  0  0  0  0  0
   -1.9784   -0.7615   -0.0000 C   0  0  0  0  0  0  0  0  0  0  0  0
   -3.2974   -1.5230   -0.0000 C   0  0  0  0  0  0  0  0  0  0  0  0
   -3.2974   -3.0460   -0.0000 C   0  0  0  0  0  0  0  0  0  0  0  0
   -1.9784   -3.8075   -0.0000 C   0  0  0  0  0  0  0  0  0  0  0  0
    1.9785    3.0460    0.0000 C   0  0  0  0  0  0  0  0  0  0  0  0
    0.6595    3.8075    0.0000 C   0  0  0  0  0  0  0  0  0  0  0  0
  1  2  1  0      
  2  7  1  0      
  2  3  2  0      
  3  4  1  0      
  3 10  1  0      
  4  5  1  0      
  4 17  2  0      
  5 20  2  0      
  5  6  1  0      
  6  7  2  0      
  8  9  1  0      
 10  9  1  1      
  9 21  2  0      
 10 11  2  0      
 11 16  1  0      
 11 12  1  0      
 12 22  2  0      
 12 13  1  0      
 13 14  2  0      
 14 15  1  0      
 15 16  2  0      
 17 18  1  0      
 18 19  2  0      
 19 20  1  0      
 22 21  1  1      
M  END
>  <ID>
93

>  <OLD>
InChI=1S/C20H14O2/c21-17-11-9-13-5-1-3-7-15(13)19(17)20-16-8-4-2-6-14(16)10-12-18(20)22/h1-12,21-22H

>  <NEW>
InChI=1B/C20H14O2/c21-17-11-9-13-5-1-3-7-15(13)19(17)20-16-8-4-2-6-14(16)10-12-18(20)22/h1-12,21-22H/t19-/m0/s1

$$$$
atropisomers_test_file_1_v2.sdf
  ChemDraw03052609263D

 22 25  0  0  0  0  0  0  0  0999 V2000
    3.2974   -0.7615    0.0000 O   0  0  0  0  0  0  0  0  0  0  0  0
    1.9784   -1.5230    0.0000 C   0  0  0  0  0  0  0  0  0  0  0  0
    0.6595   -0.7615    0.0000 C   0  0  0  0  0  0  0  0  0  0  0  0
   -0.6595   -1.5230   -0.0000 C   0  0  0  0  0  0  0  0  0  0  0  0
   -0.6595   -3.0460   -0.0000 C   0  0  0  0  0  0  0  0  0  0  0  0
    0.6595   -3.8075    0.0000 C   0  0  0  0  0  0  0  0  0  0  0  0
    1.9784   -3.0460    0.0000 C   0  0  0  0  0  0  0  0  0  0  0  0
    3.2974    0.7615    0.0000 O   0  0  0  0  0  0  0  0  0  0  0  0
    1.9784    1.5230    0.0000 C   0  0  0  0  0  0  0  0  0  0  0  0
    0.6595    0.7615    0.0000 C   0  0  0  0  0  0  0  0  0  0  0  0
   -0.6595    1.5230    0.0000 C   0  0  0  0  0  0  0  0  0  0  0  0
   -0.6595    3.0460    0.0000 C   0  0  0  0  0  0  0  0  0  0  0  0
   -1.9784    3.8075    0.0000 C   0  0  0  0  0  0  0  0  0  0  0  0
   -3.2974    3.0460    0.0000 C   0  0  0  0  0  0  0  0  0  0  0  0
   -3.2974    1.5230    0.0000 C   0  0  0  0  0  0  0  0  0  0  0  0
   -1.9784    0.7615    0.0000 C   0  0  0  0  0  0  0  0  0  0  0  0
   -1.9784   -0.7615   -0.0000 C   0  0  0  0  0  0  0  0  0  0  0  0
   -3.2974   -1.5230   -0.0000 C   0  0  0  0  0  0  0  0  0  0  0  0
   -3.2974   -3.0460   -0.0000 C   0  0  0  0  0  0  0  0  0  0  0  0
   -1.9784   -3.8075   -0.0000 C   0  0  0  0  0  0  0  0  0  0  0  0
    1.9785    3.0460    0.0000 C   0  0  0  0  0  0  0  0  0  0  0  0
    0.6595    3.8075    0.0000 C   0  0  0  0  0  0  0  0  0  0  0  0
  1  2  1  0      
  2  7  1  0      
  2  3  2  0      
  3  4  1  6      
  3 10  1  0      
  4  5  1  0      
  4 17  2  0      
  5 20  2  0      
  5  6  1  0      
  6  7  2  0      
  8  9  1  0      
  9 10  1  0      
  9 21  2  0      
 10 11  2  0      
 11 16  1  0      
 11 12  1  0      
 12 22  2  0      
 12 13  1  0      
 13 14  2  0      
 14 15  1  0      
 15 16  2  0      
 17 18  1  0      
 18 19  2  0      
 19 20  1  0      
 21 22  1  0      
M  END
>  <ID>
94

>  <OLD>
InChI=1S/C20H14O2/c21-17-11-9-13-5-1-3-7-15(13)19(17)20-16-8-4-2-6-14(16)10-12-18(20)22/h1-12,21-22H

>  <NEW>
InChI=1B/C20H14O2/c21-17-11-9-13-5-1-3-7-15(13)19(17)20-16-8-4-2-6-14(16)10-12-18(20)22/h1-12,21-22H/t19-/m1/s1

$$$$
atropisomers_test_file_1_v2.sdf
  ChemDraw03052609263D

 23 26  0  0  0  0  0  0  0  0999 V2000
    5.2409   -0.0061    0.0000 O   0  0  0  0  0  0  0  0  0  0  0  0
    4.3393    1.2245    0.0000 C   0  0  0  0  0  0  0  0  0  0  0  0
    2.8894    0.7615    0.0000 C   0  0  0  0  0  0  0  0  0  0  0  0
    2.8894   -0.7737    0.0000 C   0  0  0  0  0  0  0  0  0  0  0  0
    4.3393   -1.2367    0.0000 C   0  0  0  0  0  0  0  0  0  0  0  0
    1.3664    0.7615    0.0000 C   0  0  0  0  0  0  0  0  0  0  0  0
    0.0384    1.5169    0.0000 C   0  0  0  0  0  0  0  0  0  0  0  0
   -1.2775    0.7615    0.0000 C   0  0  0  0  0  0  0  0  0  0  0  0
   -1.2775   -0.7737    0.0000 C   0  0  0  0  0  0  0  0  0  0  0  0
    0.0384   -1.5291    0.0000 C   0  0  0  0  0  0  0  0  0  0  0  0
    1.3664   -0.7737    0.0000 C   0  0  0  0  0  0  0  0  0  0  0  0
    0.0384    3.0521    0.0000 C   0  0  0  0  0  0  0  0  0  0  0  0
   -1.2775    3.8075    0.0000 C   0  0  0  0  0  0  0  0  0  0  0  0
   -2.5934    3.0521    0.0000 C   0  0  0  0  0  0  0  0  0  0  0  0
   -2.5934    1.5169    0.0000 C   0  0  0  0  0  0  0  0  0  0  0  0
   -2.5934   -1.5291    0.0000 C   0  0  0  0  0  0  0  0  0  0  0  0
   -2.5934   -3.0521    0.0000 C   0  0  0  0  0  0  0  0  0  0  0  0
   -1.2775   -3.8075    0.0000 C   0  0  0  0  0  0  0  0  0  0  0  0
    0.0384   -3.0521    0.0000 C   0  0  0  0  0  0  0  0  0  0  0  0
   -3.9214    3.8075    0.0000 O   0  0  0  0  0  0  0  0  0  0  0  0
   -5.2409    3.0229   -0.0000 C   0  0  0  0  0  0  0  0  0  0  0  0
   -3.9214   -3.8075    0.0000 O   0  0  0  0  0  0  0  0  0  0  0  0
   -5.2373   -3.0521    0.0000 C   0  0  0  0  0  0  0  0  0  0  0  0
  1  2  1  0      
  1  5  1  0      
  2  3  1  0      
  3  6  1  0      
  3  4  1  0      
  4 11  1  0      
  4  5  1  0      
  6  7  1  0      
  7 12  2  0      
  8  7  1  1      
  8 15  2  0      
  8  9  1  0      
  9 10  2  0      
  9 16  1  1      
 10 19  1  0      
 10 11  1  0      
 13 12  1  1      
 13 14  2  0      
 14 15  1  0      
 14 20  1  0      
 16 17  2  0      
 18 17  1  1      
 17 22  1  0      
 18 19  2  0      
 20 21  1  0      
 22 23  1  0      
M  END
>  <ID>
95

>  <OLD>
InChI=1S/C20H22O3/c1-21-17-5-3-13-7-15-11-23-12-16(15)8-14-4-6-18(22-2)10-20(14)19(13)9-17/h3-6,9-10,15-16H,7-8,11-12H2,1-2H3

>  <NEW>
InChI=1B/C20H22O3/c1-21-17-5-3-13-7-15-11-23-12-16(15)8-14-4-6-18(22-2)10-20(14)19(13)9-17/h3-6,9-10,15-16H,7-8,11-12H2,1-2H3

$$$$
atropisomers_test_file_1_v2.sdf
  ChemDraw03052609263D

 23 26  0  0  0  0  0  0  0  0999 V2000
    5.2409   -0.0061    0.0000 O   0  0  0  0  0  0  0  0  0  0  0  0
    4.3393    1.2245    0.0000 C   0  0  0  0  0  0  0  0  0  0  0  0
    2.8894    0.7615    0.0000 C   0  0  0  0  0  0  0  0  0  0  0  0
    2.8894   -0.7737    0.0000 C   0  0  0  0  0  0  0  0  0  0  0  0
    4.3393   -1.2367    0.0000 C   0  0  0  0  0  0  0  0  0  0  0  0
    1.3664    0.7615    0.0000 C   0  0  0  0  0  0  0  0  0  0  0  0
    0.0384    1.5169    0.0000 C   0  0  0  0  0  0  0  0  0  0  0  0
   -1.2775    0.7615    0.0000 C   0  0  0  0  0  0  0  0  0  0  0  0
   -1.2775   -0.7737    0.0000 C   0  0  0  0  0  0  0  0  0  0  0  0
    0.0384   -1.5291    0.0000 C   0  0  0  0  0  0  0  0  0  0  0  0
    1.3664   -0.7737    0.0000 C   0  0  0  0  0  0  0  0  0  0  0  0
    0.0384    3.0521    0.0000 C   0  0  0  0  0  0  0  0  0  0  0  0
   -1.2775    3.8075    0.0000 C   0  0  0  0  0  0  0  0  0  0  0  0
   -2.5934    3.0521    0.0000 C   0  0  0  0  0  0  0  0  0  0  0  0
   -2.5934    1.5169    0.0000 C   0  0  0  0  0  0  0  0  0  0  0  0
   -2.5934   -1.5291    0.0000 C   0  0  0  0  0  0  0  0  0  0  0  0
   -2.5934   -3.0521    0.0000 C   0  0  0  0  0  0  0  0  0  0  0  0
   -1.2775   -3.8075    0.0000 C   0  0  0  0  0  0  0  0  0  0  0  0
    0.0384   -3.0521    0.0000 C   0  0  0  0  0  0  0  0  0  0  0  0
   -3.9214    3.8075    0.0000 O   0  0  0  0  0  0  0  0  0  0  0  0
   -5.2409    3.0229   -0.0000 C   0  0  0  0  0  0  0  0  0  0  0  0
   -3.9214   -3.8075    0.0000 O   0  0  0  0  0  0  0  0  0  0  0  0
   -5.2373   -3.0521    0.0000 C   0  0  0  0  0  0  0  0  0  0  0  0
  1  2  1  0      
  1  5  1  0      
  2  3  1  0      
  3  6  1  0      
  3  4  1  0      
  4 11  1  0      
  4  5  1  0      
  6  7  1  0      
  7 12  2  0      
  7  8  1  0      
  8 15  2  0      
  8  9  1  0      
  9 10  1  1      
  9 16  2  0      
 10 19  2  0      
 10 11  1  0      
 12 13  1  0      
 13 14  2  0      
 14 15  1  0      
 14 20  1  0      
 16 17  1  0      
 17 18  2  0      
 17 22  1  0      
 18 19  1  0      
 20 21  1  0      
 22 23  1  0      
M  END
>  <ID>
96

>  <OLD>
InChI=1S/C20H22O3/c1-21-17-5-3-13-7-15-11-23-12-16(15)8-14-4-6-18(22-2)10-20(14)19(13)9-17/h3-6,9-10,15-16H,7-8,11-12H2,1-2H3

>  <NEW>
InChI=1B/C20H22O3/c1-21-17-5-3-13-7-15-11-23-12-16(15)8-14-4-6-18(22-2)10-20(14)19(13)9-17/h3-6,9-10,15-16H,7-8,11-12H2,1-2H3

$$$$
atropisomer test mol                                                      
  Ketcher  2272615132D 1   1.00000     0.00000     0                      
                                                                          
 15 17  0  0  1  0  0  0  0  0999 V2000                                   
    5.4357   -3.2991    0.0000 C   0  0  0  0  0  0  0  0  0  0  0  0     
    7.1745   -3.2986    0.0000 C   0  0  0  0  0  0  0  0  0  0  0  0     
    6.3067   -2.7965    0.0000 C   0  0  0  0  0  0  0  0  0  0  0  0     
    7.1745   -4.3043    0.0000 C   0  0  0  0  0  0  0  0  0  0  0  0     
    5.4357   -4.3088    0.0000 C   0  0  0  0  0  0  0  0  0  0  0  0     
    6.3090   -4.8062    0.0000 C   0  0  0  0  0  0  0  0  0  0  0  0     
    5.4357   -6.6150    0.0000 C   0  0  0  0  0  0  0  0  0  0  0  0     
    7.1745   -6.6145    0.0000 C   0  0  0  0  0  0  0  0  0  0  0  0     
    6.3067   -6.1125    0.0000 C   0  0  0  0  0  0  0  0  0  0  0  0     
    7.1745   -7.6203    0.0000 C   0  0  0  0  0  0  0  0  0  0  0  0     
    5.4357   -7.6248    0.0000 C   0  0  0  0  0  0  0  0  0  0  0  0     
    6.3090   -8.1222    0.0000 C   0  0  0  0  0  0  0  0  0  0  0  0     
    8.0449   -6.1125    0.0000 C   0  0  0  0  0  0  0  0  0  0  0  0     
    8.0452   -4.8059    0.0000 C   0  0  0  0  0  0  0  0  0  0  0  0     
    8.2722   -5.4088    0.0000 C   0  0  0  0  0  0  0  0  0  0  0  0     
  3  1  2  0     0  0                                                     
  1  5  1  0     0  0                                                     
  5  6  2  0     0  0                                                     
  6  4  1  1     0  0                                                     
  4  2  2  0     0  0                                                     
  9  7  1  1     0  0                                                     
  7 11  2  0     0  0                                                     
 12 10  2  0     0  0                                                     
 10  8  1  0     0  0                                                     
  8  9  2  0     0  0                                                     
  6  9  1  0     0  0                                                     
  8 13  1  0     0  0                                                     
  4 14  1  0     0  0                                                     
 14 15  1  0     0  0                                                     
 13 15  1  0     0  0                                                     
  3  2  1  1     0  0                                                     
 12 11  1  1     0  0                                                     
M  END                                                                    
>  <ID>
97

>  <OLD>
InChI=1S/C15H14/c1-3-10-14-12(6-1)8-5-9-13-7-2-4-11-15(13)14/h1-4,6-7,10-11H,5,8-9H2

>  <NEW>
InChI=1B/C15H14/c1-3-10-14-12(6-1)8-5-9-13-7-2-4-11-15(13)14/h1-4,6-7,10-11H,5,8-9H2

$$$$
atropisomers_test_file_1_v2.sdf
  ChemDraw03052609262D

 14 13  0  0  0  0  0  0  0  0999 V2000
   -0.4125    0.0000    0.0000 C   0  0  0  0  0  0  0  0  0  0  0  0
    0.4125    0.0000    0.0000 C   0  0  0  0  0  0  0  0  0  0  0  0
   -0.8250    0.7145    0.0000 C   0  0  0  0  0  0  0  0  0  0  0  0
    0.8250   -0.7145    0.0000 C   0  0  0  0  0  0  0  0  0  0  0  0
   -0.8250   -0.7145    0.0000 C   0  0  0  0  0  0  0  0  0  0  0  0
    0.8250    0.7145    0.0000 C   0  0  0  0  0  0  0  0  0  0  0  0
   -1.6500   -0.7145    0.0000 C   0  0  0  0  0  0  0  0  0  0  0  0
   -0.4125   -1.4289    0.0000 C   0  0  0  0  0  0  0  0  0  0  0  0
    0.4125   -1.4289    0.0000 C   0  0  0  0  0  0  0  0  0  0  0  0
    1.6500   -0.7145    0.0000 C   0  0  0  0  0  0  0  0  0  0  0  0
   -0.4125    1.4289    0.0000 C   0  0  0  0  0  0  0  0  0  0  0  0
   -1.6500    0.7145    0.0000 C   0  0  0  0  0  0  0  0  0  0  0  0
    1.6500    0.7145    0.0000 C   0  0  0  0  0  0  0  0  0  0  0  0
    0.4125    1.4289    0.0000 C   0  0  0  0  0  0  0  0  0  0  0  0
  1  2  1  0      
  1  3  1  0      
  1  5  2  0      
  2  4  2  0      
  2  6  1  1      
  3 11  1  0      
  3 12  1  0      
  4  9  1  0      
  4 10  1  0      
  5  7  1  0      
  5  8  1  0      
  6 13  1  0      
  6 14  1  0      
M  END
>  <ID>
98

>  <OLD>
InChI=1S/C14H26/c1-9(2)13(10(3)4)14(11(5)6)12(7)8/h9,11H,1-8H3

>  <NEW>
InChI=1B/C14H26/c1-9(2)13(10(3)4)14(11(5)6)12(7)8/h9,11H,1-8H3/t13-/m1/s1

$$$$
atropisomers_test_file_1_v2.sdf
  ChemDraw03052609262D

 14 14  0  0  0  0  0  0  0  0999 V2000
    0.3573   -0.6188    0.0000 C   0  0  0  0  0  0  0  0  0  0  0  0
    0.3573   -1.4438    0.0000 C   0  0  0  0  0  0  0  0  0  0  0  0
   -0.3573   -0.2063    0.0000 C   0  0  0  0  0  0  0  0  0  0  0  0
   -0.3573   -1.8563    0.0000 C   0  0  0  0  0  0  0  0  0  0  0  0
   -1.0717   -0.6188    0.0000 C   0  0  0  0  0  0  0  0  0  0  0  0
   -1.0717   -1.4438    0.0000 C   0  0  0  0  0  0  0  0  0  0  0  0
   -0.3573    0.6187    0.0000 C   0  0  0  0  0  0  0  0  0  0  0  0
    0.3572    1.0313    0.0000 N   0  0  0  0  0  0  0  0  0  0  0  0
   -1.0718    1.0312    0.0000 O   0  0  0  0  0  0  0  0  0  0  0  0
    1.1848    1.0467    0.0000 C   0  0  0  0  0  0  0  0  0  0  0  0
    0.3572    1.8563    0.0000 C   0  0  0  0  0  0  0  0  0  0  0  0
   -1.7862   -0.2063    0.0000 C   0  0  0  0  0  0  0  0  0  0  0  0
    1.0717   -0.2062    0.0000 C   0  0  0  0  0  0  0  0  0  0  0  0
    1.7862   -0.6187    0.0000 C   0  0  0  0  0  0  0  0  0  0  0  0
  1  2  1  0      
  1  3  2  0      
  1 13  1  0      
  2  4  2  0      
  3  5  1  1      
  3  7  1  0      
  4  6  1  0      
  5  6  2  0      
  5 12  1  0      
  7  8  1  0      
  7  9  2  0      
  8 10  1  0      
  8 11  1  0      
 13 14  1  0      
M  END
>  <ID>
99

>  <OLD>
InChI=1S/C12H17NO/c1-5-10-8-6-7-9(2)11(10)12(14)13(3)4/h6-8H,5H2,1-4H3

>  <NEW>
InChI=1B/C12H17NO/c1-5-10-8-6-7-9(2)11(10)12(14)13(3)4/h6-8H,5H2,1-4H3/t11-/m1/s1

$$$$
atropisomers_test_file_1_v2.sdf
  ChemDraw03052609262D

 21 23  0  0  0  0  0  0  0  0999 V2000
    0.3688   -0.9413    0.0000 C   0  0  0  0  0  0  0  0  0  0  0  0
    0.3688   -1.7663    0.0000 C   0  0  0  0  0  0  0  0  0  0  0  0
   -0.3457   -0.5288    0.0000 C   0  0  0  0  0  0  0  0  0  0  0  0
   -0.3457   -2.1788    0.0000 C   0  0  0  0  0  0  0  0  0  0  0  0
   -1.0602   -0.9413    0.0000 C   0  0  0  0  0  0  0  0  0  0  0  0
   -1.0602   -1.7663    0.0000 C   0  0  0  0  0  0  0  0  0  0  0  0
   -0.3457    0.2962    0.0000 N   0  0  0  0  0  0  0  0  0  0  0  0
    0.3218    0.7811    0.0000 C   0  0  0  0  0  0  0  0  0  0  0  0
   -1.0131    0.7811    0.0000 C   0  0  0  0  0  0  0  0  0  0  0  0
    0.0668    1.5657    0.0000 C   0  0  0  0  0  0  0  0  0  0  0  0
   -0.7582    1.5657    0.0000 C   0  0  0  0  0  0  0  0  0  0  0  0
    1.0833   -0.5288    0.0000 C   0  0  0  0  0  0  0  0  0  0  0  0
   -1.7746   -0.5288    0.0000 C   0  0  0  0  0  0  0  0  0  0  0  0
    1.1287    0.6096    0.0000 C   0  0  0  0  0  0  0  0  0  0  0  0
    1.6808    1.2227    0.0000 C   0  0  0  0  0  0  0  0  0  0  0  0
    0.6189    2.1788    0.0000 C   0  0  0  0  0  0  0  0  0  0  0  0
    1.4258    2.0073    0.0000 C   0  0  0  0  0  0  0  0  0  0  0  0
   -1.7977    0.5262    0.0000 C   0  0  0  0  0  0  0  0  0  0  0  0
    0.6708    0.1857    0.0000 C   0  0  0  0  0  0  0  0  0  0  0  0
    1.4958   -1.2433    0.0000 C   0  0  0  0  0  0  0  0  0  0  0  0
    1.7977   -0.1163    0.0000 C   0  0  0  0  0  0  0  0  0  0  0  0
  1  2  1  0      
  1  3  2  0      
  1 12  1  0      
  2  4  2  0      
  3  5  1  0      
  3  7  1  0      
  4  6  1  0      
  5  6  2  0      
  5 13  1  0      
  7  8  1  1      
  7  9  1  6      
  8 14  1  0      
  8 10  2  0      
  9 11  2  0      
  9 18  1  0      
 10 11  1  0      
 10 16  1  0      
 12 19  1  0      
 12 20  1  0      
 12 21  1  0      
 14 15  2  0      
 15 17  1  0      
 16 17  2  0      
M  END
>  <ID>
100

>  <OLD>
InChI=1S/C20H23N/c1-14-9-8-11-17(20(3,4)5)19(14)21-15(2)13-16-10-6-7-12-18(16)21/h6-13H,1-5H3

>  <NEW>
InChI=1B/C20H23N/c1-14-9-8-11-17(20(3,4)5)19(14)21-15(2)13-16-10-6-7-12-18(16)21/h6-13H,1-5H3

$$$$
atropisomers_test_file_1_v2.sdf
  ChemDraw03052609262D

 19 19  0  0  1  0  0  0  0  0999 V2000
   -0.3603   -0.6131    0.0000 N   0  0  0  0  0  0  0  0  0  0  0  0
   -1.0760   -0.2027    0.0000 C   0  0  0  0  0  0  0  0  0  0  0  0
   -0.3603   -1.4439    0.0000 C   0  0  0  0  0  0  0  0  0  0  0  0
   -1.7917   -0.6131    0.0000 C   0  0  0  0  0  0  0  0  0  0  0  0
   -1.0760   -1.8543    0.0000 O   0  0  0  0  0  0  0  0  0  0  0  0
   -1.0760    0.6231    0.0000 C   0  0  0  0  0  0  0  0  0  0  0  0
    0.3553   -0.2027    0.0000 C   0  0  0  0  0  0  0  0  0  0  0  0
    0.3553   -1.8543    0.0000 C   0  0  0  0  0  0  0  0  0  0  0  0
    1.0710   -1.4439    0.0000 Cl  0  0  0  0  0  0  0  0  0  0  0  0
   -2.5024    0.6231    0.0000 C   0  0  0  0  0  0  0  0  0  0  0  0
    1.7867   -0.2027    0.0000 O   0  0  0  0  0  0  0  0  0  0  0  0
   -2.5024   -0.2027    0.0000 C   0  0  0  0  0  0  0  0  0  0  0  0
   -1.7917    1.0335    0.0000 C   0  0  0  0  0  0  0  0  0  0  0  0
   -0.3603    1.0335    0.0000 C   0  0  0  0  0  0  0  0  0  0  0  0
    1.0710   -0.6131    0.0000 C   0  0  0  0  0  0  0  0  0  0  0  0
   -1.7917   -1.4439    0.0000 C   0  0  0  0  0  0  0  0  0  0  0  0
    0.3553    0.6231    0.0000 C   0  0  0  0  0  0  0  0  0  0  0  0
    2.5024   -0.6131    0.0000 C   0  0  0  0  0  0  0  0  0  0  0  0
   -0.3603    1.8543    0.0000 C   0  0  0  0  0  0  0  0  0  0  0  0
  1  2  1  0      
  1  3  1  0      
  1  7  1  0      
  2  4  1  1      
  2  6  2  0      
  3  5  2  0      
  3  8  1  0      
  4 12  2  0      
  4 16  1  0      
  6 13  1  0      
  6 14  1  0      
  7 15  1  0      
  7 17  1  1      
  8  9  1  0      
 10 13  2  0      
 10 12  1  0      
 11 15  1  0      
 11 18  1  0      
 14 19  1  0      
M  END
>  <ID>
101

>  <OLD>
InChI=1S/C15H22ClNO2/c1-5-13-8-6-7-11(2)15(13)17(14(18)9-16)12(3)10-19-4/h6-8,12H,5,9-10H2,1-4H3/t12-/m0/s1

>  <NEW>
InChI=1B/C15H22ClNO2/c1-5-13-8-6-7-11(2)15(13)17(14(18)9-16)12(3)10-19-4/h6-8,12H,5,9-10H2,1-4H3/t12-/m0/s1

$$$$
atropisomers_test_file_1_v2.sdf
  ChemDraw03052609262D

 22 25  0  0  0  0  0  0  0  0999 V2000
   -0.0000    0.4125    0.0000 N   0  0  0  0  0  0  0  0  0  0  0  0
   -0.6675    0.8974    0.0000 C   0  0  0  0  0  0  0  0  0  0  0  0
    0.6674    0.8975    0.0000 C   0  0  0  0  0  0  0  0  0  0  0  0
   -0.4125    1.6820    0.0000 C   0  0  0  0  0  0  0  0  0  0  0  0
    0.4124    1.6822    0.0000 C   0  0  0  0  0  0  0  0  0  0  0  0
   -1.4744    0.7259    0.0000 C   0  0  0  0  0  0  0  0  0  0  0  0
   -2.0264    1.3390    0.0000 C   0  0  0  0  0  0  0  0  0  0  0  0
   -0.9645    2.2951    0.0000 C   0  0  0  0  0  0  0  0  0  0  0  0
   -1.7715    2.1236    0.0000 C   0  0  0  0  0  0  0  0  0  0  0  0
    1.4521    0.6426    0.0000 C   0  0  0  0  0  0  0  0  0  0  0  0
    0.0000   -0.4125    0.0000 N   0  0  0  0  0  0  0  0  0  0  0  0
    0.6675   -0.8974    0.0000 C   0  0  0  0  0  0  0  0  0  0  0  0
   -0.6674   -0.8975    0.0000 C   0  0  0  0  0  0  0  0  0  0  0  0
    0.4125   -1.6820    0.0000 C   0  0  0  0  0  0  0  0  0  0  0  0
   -0.4124   -1.6822    0.0000 C   0  0  0  0  0  0  0  0  0  0  0  0
    1.4744   -0.7259    0.0000 C   0  0  0  0  0  0  0  0  0  0  0  0
    2.0264   -1.3390    0.0000 C   0  0  0  0  0  0  0  0  0  0  0  0
    0.9645   -2.2951    0.0000 C   0  0  0  0  0  0  0  0  0  0  0  0
    1.7715   -2.1236    0.0000 C   0  0  0  0  0  0  0  0  0  0  0  0
   -1.4521   -0.6426    0.0000 C   0  0  0  0  0  0  0  0  0  0  0  0
    2.0652    1.1946    0.0000 C   0  0  0  0  0  0  0  0  0  0  0  0
   -2.0652   -1.1946    0.0000 C   0  0  0  0  0  0  0  0  0  0  0  0
  1  2  1  1      
  1  3  1  6      
  1 11  1  0      
  2  6  1  0      
  2  4  2  0      
  3  5  2  0      
  3 10  1  0      
  4  5  1  0      
  4  8  1  0      
  6  7  2  0      
  7  9  1  0      
  8  9  2  0      
 10 21  1  0      
 11 12  1  1      
 11 13  1  6      
 12 16  1  0      
 12 14  2  0      
 13 15  2  0      
 13 20  1  0      
 14 15  1  0      
 14 18  1  0      
 16 17  2  0      
 17 19  1  0      
 18 19  2  0      
 20 22  1  0      
M  END
>  <ID>
102

>  <OLD>
InChI=1S/C20H20N2/c1-3-17-13-15-9-5-7-11-19(15)21(17)22-18(4-2)14-16-10-6-8-12-20(16)22/h5-14H,3-4H2,1-2H3

>  <NEW>
InChI=1B/C20H20N2/c1-3-17-13-15-9-5-7-11-19(15)21(17)22-18(4-2)14-16-10-6-8-12-20(16)22/h5-14H,3-4H2,1-2H3

$$$$
atropisomers_test_file_1_v2.sdf
  ChemDraw03052609262D

 22 25  0  0  0  0  0  0  0  0999 V2000
   -0.0000    0.4125    0.0000 N   0  0  0  0  0  0  0  0  0  0  0  0
   -0.6675    0.8974    0.0000 C   0  0  0  0  0  0  0  0  0  0  0  0
    0.6674    0.8975    0.0000 C   0  0  0  0  0  0  0  0  0  0  0  0
   -0.4125    1.6820    0.0000 C   0  0  0  0  0  0  0  0  0  0  0  0
    0.4124    1.6822    0.0000 C   0  0  0  0  0  0  0  0  0  0  0  0
   -1.4744    0.7259    0.0000 C   0  0  0  0  0  0  0  0  0  0  0  0
   -2.0264    1.3390    0.0000 C   0  0  0  0  0  0  0  0  0  0  0  0
   -0.9645    2.2951    0.0000 C   0  0  0  0  0  0  0  0  0  0  0  0
   -1.7715    2.1236    0.0000 C   0  0  0  0  0  0  0  0  0  0  0  0
    1.4521    0.6426    0.0000 C   0  0  0  0  0  0  0  0  0  0  0  0
    0.0000   -0.4125    0.0000 N   0  0  0  0  0  0  0  0  0  0  0  0
    0.6675   -0.8974    0.0000 C   0  0  0  0  0  0  0  0  0  0  0  0
   -0.6674   -0.8975    0.0000 C   0  0  0  0  0  0  0  0  0  0  0  0
    0.4125   -1.6820    0.0000 C   0  0  0  0  0  0  0  0  0  0  0  0
   -0.4124   -1.6822    0.0000 C   0  0  0  0  0  0  0  0  0  0  0  0
    1.4744   -0.7259    0.0000 C   0  0  0  0  0  0  0  0  0  0  0  0
    2.0264   -1.3390    0.0000 C   0  0  0  0  0  0  0  0  0  0  0  0
    0.9645   -2.2951    0.0000 C   0  0  0  0  0  0  0  0  0  0  0  0
    1.7715   -2.1236    0.0000 C   0  0  0  0  0  0  0  0  0  0  0  0
   -1.4521   -0.6426    0.0000 C   0  0  0  0  0  0  0  0  0  0  0  0
    2.0652    1.1946    0.0000 C   0  0  0  0  0  0  0  0  0  0  0  0
   -2.0652   -1.1946    0.0000 C   0  0  0  0  0  0  0  0  0  0  0  0
  1  2  1  0      
  1  3  1  0      
  1 11  1  0      
  2  6  1  0      
  2  4  2  0      
  3  5  2  0      
  3 10  1  0      
  4  5  1  0      
  4  8  1  0      
  6  7  2  0      
  7  9  1  0      
  8  9  2  0      
 10 21  1  0      
 11 12  1  6      
 11 13  1  1      
 12 16  1  0      
 12 14  2  0      
 13 15  2  0      
 13 20  1  0      
 14 15  1  0      
 14 18  1  0      
 16 17  2  0      
 17 19  1  0      
 18 19  2  0      
 20 22  1  0      
M  END
>  <ID>
103

>  <OLD>
InChI=1S/C20H20N2/c1-3-17-13-15-9-5-7-11-19(15)21(17)22-18(4-2)14-16-10-6-8-12-20(16)22/h5-14H,3-4H2,1-2H3

>  <NEW>
InChI=1B/C20H20N2/c1-3-17-13-15-9-5-7-11-19(15)21(17)22-18(4-2)14-16-10-6-8-12-20(16)22/h5-14H,3-4H2,1-2H3

$$$$
atropisomers_test_file_1_v2.sdf
  ChemDraw03052609262D

 22 25  0  0  1  0  0  0  0  0999 V2000
   -0.0000    0.4125    0.0000 N   0  0  0  0  0  0  0  0  0  0  0  0
   -0.6675    0.8974    0.0000 C   0  0  0  0  0  0  0  0  0  0  0  0
    0.6674    0.8975    0.0000 C   0  0  0  0  0  0  0  0  0  0  0  0
   -0.4125    1.6820    0.0000 C   0  0  0  0  0  0  0  0  0  0  0  0
    0.4124    1.6822    0.0000 C   0  0  0  0  0  0  0  0  0  0  0  0
   -1.4744    0.7259    0.0000 C   0  0  0  0  0  0  0  0  0  0  0  0
   -2.0264    1.3390    0.0000 C   0  0  0  0  0  0  0  0  0  0  0  0
   -0.9645    2.2951    0.0000 C   0  0  0  0  0  0  0  0  0  0  0  0
   -1.7715    2.1236    0.0000 C   0  0  0  0  0  0  0  0  0  0  0  0
    1.4521    0.6426    0.0000 C   0  0  0  0  0  0  0  0  0  0  0  0
    0.0000   -0.4125    0.0000 N   0  0  0  0  0  0  0  0  0  0  0  0
    0.6675   -0.8974    0.0000 C   0  0  0  0  0  0  0  0  0  0  0  0
   -0.6674   -0.8975    0.0000 C   0  0  0  0  0  0  0  0  0  0  0  0
    0.4125   -1.6820    0.0000 C   0  0  0  0  0  0  0  0  0  0  0  0
   -0.4124   -1.6822    0.0000 C   0  0  0  0  0  0  0  0  0  0  0  0
    1.4744   -0.7259    0.0000 C   0  0  0  0  0  0  0  0  0  0  0  0
    2.0264   -1.3390    0.0000 C   0  0  0  0  0  0  0  0  0  0  0  0
    0.9645   -2.2951    0.0000 C   0  0  0  0  0  0  0  0  0  0  0  0
    1.7715   -2.1236    0.0000 C   0  0  0  0  0  0  0  0  0  0  0  0
   -1.4521   -0.6426    0.0000 C   0  0  0  0  0  0  0  0  0  0  0  0
    2.0652    1.1946    0.0000 C   0  0  0  0  0  0  0  0  0  0  0  0
   -2.0652   -1.1946    0.0000 C   0  0  0  0  0  0  0  0  0  0  0  0
  1  2  1  0      
  3  1  1  1      
  1 11  1  0      
  2  6  1  0      
  2  4  2  0      
  3  5  1  0      
  3 10  1  0      
  4  5  1  0      
  4  8  1  0      
  6  7  2  0      
  7  9  1  0      
  8  9  2  0      
 10 21  1  0      
 11 12  1  6      
 11 13  1  1      
 12 16  1  0      
 12 14  2  0      
 13 15  2  0      
 13 20  1  0      
 14 15  1  0      
 14 18  1  0      
 16 17  2  0      
 17 19  1  0      
 18 19  2  0      
 20 22  1  0      
M  END
>  <ID>
104

>  <OLD>
InChI=1S/C20H22N2/c1-3-17-13-15-9-5-7-11-19(15)21(17)22-18(4-2)14-16-10-6-8-12-20(16)22/h5-13,18H,3-4,14H2,1-2H3/t18-/m1/s1

>  <NEW>
InChI=1B/C20H22N2/c1-3-17-13-15-9-5-7-11-19(15)21(17)22-18(4-2)14-16-10-6-8-12-20(16)22/h5-13,18H,3-4,14H2,1-2H3/t18-/m1/s1

$$$$
atropisomers_test_file_1_v2.sdf
  ChemDraw03052609262D

 12 13  0  0  0  0  0  0  0  0999 V2000
    0.7145    1.6500    0.0000 C   0  0  0  0  0  0  0  0  0  0  0  0
    0.7145    0.8250    0.0000 C   0  0  0  0  0  0  0  0  0  0  0  0
    0.0000    2.0625    0.0000 C   0  0  0  0  0  0  0  0  0  0  0  0
    0.0000    0.4125    0.0000 C   0  0  0  0  0  0  0  0  0  0  0  0
   -0.7144    1.6500    0.0000 N   0  0  0  0  0  0  0  0  0  0  0  0
   -0.7144    0.8250    0.0000 C   0  0  0  0  0  0  0  0  0  0  0  0
   -0.0000   -0.4125    0.0000 C   0  0  0  0  0  0  0  0  0  0  0  0
    0.7145   -0.8250    0.0000 C   0  0  0  0  0  0  0  0  0  0  0  0
   -0.7145   -0.8250    0.0000 C   0  0  0  0  0  0  0  0  0  0  0  0
    0.7144   -1.6501    0.0000 N   0  0  0  0  0  0  0  0  0  0  0  0
   -0.7145   -1.6500    0.0000 C   0  0  0  0  0  0  0  0  0  0  0  0
   -0.0001   -2.0625    0.0000 C   0  0  0  0  0  0  0  0  0  0  0  0
  1  2  1  0      
  1  3  2  0      
  2  4  2  0      
  3  5  1  0      
  4  6  1  1      
  4  7  1  0      
  5  6  2  0      
  7  8  1  0      
  7  9  2  0      
  8 10  2  0      
  9 11  1  0      
 10 12  1  0      
 11 12  2  0      
M  END
>  <ID>
105

>  <OLD>
InChI=1S/C10H8N2/c1-3-9(7-11-5-1)10-4-2-6-12-8-10/h1-8H

>  <NEW>
InChI=1B/C10H8N2/c1-3-9(7-11-5-1)10-4-2-6-12-8-10/h1-8H

$$$$
atropisomers_test_file_1_v2.sdf
  ChemDraw03052609262D

 28 33  0  0  0  0  0  0  0  0999 V2000
    0.7145    1.6501    0.0000 C   0  0  0  0  0  0  0  0  0  0  0  0
    0.7145    0.8251    0.0000 C   0  0  0  0  0  0  0  0  0  0  0  0
   -0.0000    2.0626    0.0000 O   0  0  0  0  0  0  0  0  0  0  0  0
   -0.0000    0.4126    0.0000 C   0  0  0  0  0  0  0  0  0  0  0  0
   -0.7145    1.6501    0.0000 C   0  0  0  0  0  0  0  0  0  0  0  0
   -0.7145    0.8251    0.0000 C   0  0  0  0  0  0  0  0  0  0  0  0
   -0.0000   -0.4124    0.0000 C   0  0  0  0  0  0  0  0  0  0  0  0
    0.7144   -0.8250    0.0000 C   0  0  0  0  0  0  0  0  0  0  0  0
   -0.7146   -0.8250    0.0000 C   0  0  0  0  0  0  0  0  0  0  0  0
    0.7144   -1.6500    0.0000 C   0  0  0  0  0  0  0  0  0  0  0  0
   -0.7146   -1.6500    0.0000 C   0  0  0  0  0  0  0  0  0  0  0  0
   -0.0001   -2.0625    0.0000 O   0  0  0  0  0  0  0  0  0  0  0  0
   -1.4289    2.0626    0.0000 C   0  0  0  0  0  0  0  0  0  0  0  0
   -2.1434    1.6500    0.0000 C   0  0  0  0  0  0  0  0  0  0  0  0
   -1.4289    0.4126    0.0000 C   0  0  0  0  0  0  0  0  0  0  0  0
   -2.1433    0.8250    0.0000 C   0  0  0  0  0  0  0  0  0  0  0  0
   -1.4290   -0.4125    0.0000 C   0  0  0  0  0  0  0  0  0  0  0  0
   -2.1434   -0.8250    0.0000 C   0  0  0  0  0  0  0  0  0  0  0  0
   -1.4290   -2.0624    0.0000 C   0  0  0  0  0  0  0  0  0  0  0  0
   -2.1434   -1.6500    0.0000 C   0  0  0  0  0  0  0  0  0  0  0  0
    1.4290   -0.4125    0.0000 C   0  0  0  0  0  0  0  0  0  0  0  0
    2.1434   -0.8252    0.0000 N   0  0  0  0  0  0  0  0  0  0  0  0
    1.4288   -2.0626    0.0000 C   0  0  0  0  0  0  0  0  0  0  0  0
    2.1433   -1.6502    0.0000 C   0  0  0  0  0  0  0  0  0  0  0  0
    1.4290    2.0626    0.0000 C   0  0  0  0  0  0  0  0  0  0  0  0
    2.1434    1.6500    0.0000 N   0  0  0  0  0  0  0  0  0  0  0  0
    1.4290    0.4126    0.0000 C   0  0  0  0  0  0  0  0  0  0  0  0
    2.1434    0.8251    0.0000 C   0  0  0  0  0  0  0  0  0  0  0  0
  1  3  1  0      
  1 25  1  0      
  1  2  2  0      
  4  2  1  1      
  2 27  1  0      
  3  5  1  0      
  4  6  1  0      
  4  7  2  0      
  5 13  1  0      
  5  6  2  0      
  6 15  1  0      
  7  8  1  0      
  7  9  1  0      
  8 21  1  0      
  8 10  2  0      
  9 17  1  0      
  9 11  2  0      
 10 12  1  0      
 10 23  1  0      
 11 12  1  0      
 11 19  1  0      
 13 14  2  0      
 14 16  1  0      
 15 16  2  0      
 17 18  2  0      
 18 20  1  0      
 19 20  2  0      
 21 22  2  0      
 22 24  1  0      
 23 24  2  0      
 25 26  2  0      
 26 28  1  0      
 27 28  2  0      
M  END
>  <ID>
106

>  <OLD>
InChI=1S/C24H14N2O2/c1-4-8-20-15(5-1)23(17-9-11-26-14-22(17)28-20)24-16-6-2-3-7-19(16)27-21-10-12-25-13-18(21)24/h1-14H/b24-23-

>  <NEW>
InChI=1B/C24H14N2O2/c1-4-8-20-15(5-1)23(17-9-11-26-14-22(17)28-20)24-16-6-2-3-7-19(16)27-21-10-12-25-13-18(21)24/h1-14H/b24-23-

$$$$
atropisomers_test_file_1_v2.sdf
  ChemDraw03052609263D

 28 33  0  0  0  0  0  0  0  0999 V2000
    1.3191    3.0461    0.0000 C   0  0  0  0  0  0  0  0  0  0  0  0
    1.3191    1.5231    0.0000 C   0  0  0  0  0  0  0  0  0  0  0  0
    0.0000    3.8077    0.0000 O   0  0  0  0  0  0  0  0  0  0  0  0
    0.0000    0.7616    0.0000 C   0  0  0  0  0  0  0  0  0  0  0  0
   -1.3189    3.0461    0.0000 C   0  0  0  0  0  0  0  0  0  0  0  0
   -1.3189    1.5231    0.0000 C   0  0  0  0  0  0  0  0  0  0  0  0
    0.0000   -0.7614    0.0000 C   0  0  0  0  0  0  0  0  0  0  0  0
   -1.3190   -1.5230    0.0000 C   0  0  0  0  0  0  0  0  0  0  0  0
    1.3191   -1.5230   -0.0000 C   0  0  0  0  0  0  0  0  0  0  0  0
   -1.3189   -3.0461    0.0000 C   0  0  0  0  0  0  0  0  0  0  0  0
    1.3190   -3.0460   -0.0000 C   0  0  0  0  0  0  0  0  0  0  0  0
    0.0001   -3.8076    0.0000 O   0  0  0  0  0  0  0  0  0  0  0  0
   -2.6379    3.8076    0.0000 C   0  0  0  0  0  0  0  0  0  0  0  0
   -3.9568    3.0460    0.0000 C   0  0  0  0  0  0  0  0  0  0  0  0
   -2.6378    0.7616    0.0000 C   0  0  0  0  0  0  0  0  0  0  0  0
   -3.9567    1.5230    0.0000 C   0  0  0  0  0  0  0  0  0  0  0  0
    2.6380   -0.7617   -0.0000 C   0  0  0  0  0  0  0  0  0  0  0  0
    3.9569   -1.5233   -0.0000 C   0  0  0  0  0  0  0  0  0  0  0  0
    2.6379   -3.8075   -0.0000 C   0  0  0  0  0  0  0  0  0  0  0  0
    3.9568   -3.0462   -0.0000 C   0  0  0  0  0  0  0  0  0  0  0  0
   -2.6380   -0.7615    0.0000 C   0  0  0  0  0  0  0  0  0  0  0  0
   -3.9570   -1.5232    0.0000 N   0  0  0  0  0  0  0  0  0  0  0  0
   -2.6378   -3.8077    0.0000 C   0  0  0  0  0  0  0  0  0  0  0  0
   -3.9569   -3.0462    0.0000 C   0  0  0  0  0  0  0  0  0  0  0  0
    2.6381    3.8076    0.0000 C   0  0  0  0  0  0  0  0  0  0  0  0
    3.9570    3.0460    0.0000 N   0  0  0  0  0  0  0  0  0  0  0  0
    2.6380    0.7616    0.0000 C   0  0  0  0  0  0  0  0  0  0  0  0
    3.9569    1.5231    0.0000 C   0  0  0  0  0  0  0  0  0  0  0  0
  1  3  1  0      
  1 25  1  0      
  1  2  2  0      
  4  2  1  1      
  2 27  1  0      
  3  5  1  0      
  4  6  1  0      
  4  7  2  0      
  5 13  1  0      
  5  6  2  0      
  6 15  1  0      
  7  8  1  0      
  7  9  1  0      
  8 21  1  0      
  8 10  2  0      
  9 17  1  0      
  9 11  2  0      
 10 12  1  0      
 10 23  1  0      
 11 12  1  0      
 11 19  1  0      
 13 14  2  0      
 14 16  1  0      
 15 16  2  0      
 17 18  2  0      
 18 20  1  0      
 19 20  2  0      
 21 22  2  0      
 22 24  1  0      
 23 24  2  0      
 25 26  2  0      
 26 28  1  0      
 27 28  2  0      
M  END
>  <ID>
107

>  <OLD>
InChI=1S/C24H14N2O2/c1-4-8-20-15(5-1)23(17-9-11-26-14-22(17)28-20)24-16-6-2-3-7-19(16)27-21-10-12-25-13-18(21)24/h1-14H/b24-23+

>  <NEW>
InChI=1B/C24H14N2O2/c1-4-8-20-15(5-1)23(17-9-11-26-14-22(17)28-20)24-16-6-2-3-7-19(16)27-21-10-12-25-13-18(21)24/h1-14H/b24-23+

$$$$
