(S)-butan-2-ol, ABS group
     RDKit          2D

  0  0  0  0  0  0  0  0  0  0999 V3000
M  V30 BEGIN CTAB
M  V30 COUNTS 5 4 0 0 0
M  V30 BEGIN ATOM
M  V30 1 C 1.213400 -0.497560 0.000000 0
M  V30 2 C 0.346400 0.000640 0.000000 0
M  V30 3 O 0.344400 1.000640 0.000000 0
M  V30 4 C -0.518600 -0.500960 0.000000 0
M  V30 5 C -1.385600 -0.002760 0.000000 0
M  V30 END ATOM
M  V30 BEGIN BOND
M  V30 1 1 2 1 CFG=1
M  V30 2 1 2 3
M  V30 3 1 2 4
M  V30 4 1 4 5
M  V30 END BOND
M  V30 BEGIN COLLECTION
M  V30 MDLV30/STEABS ATOMS=(1 2)
M  V30 END COLLECTION
M  V30 END CTAB
M  END
>  <ID>
1

>  <OLD>
InChI=1S/C4H10O/c1-3-4(2)5/h4-5H,3H2,1-2H3/t4-/m0/s1

>  <NEW>
InChI=1B/C4H10O/c1-3-4(2)5/h4-5H,3H2,1-2H3/t4-/m0/s1

$$$$
butan-2-ol, OR group: one enantiomer, unknown which
     RDKit          2D

  0  0  0  0  0  0  0  0  0  0999 V3000
M  V30 BEGIN CTAB
M  V30 COUNTS 5 4 0 0 0
M  V30 BEGIN ATOM
M  V30 1 C 1.213400 -0.497560 0.000000 0
M  V30 2 C 0.346400 0.000640 0.000000 0
M  V30 3 O 0.344400 1.000640 0.000000 0
M  V30 4 C -0.518600 -0.500960 0.000000 0
M  V30 5 C -1.385600 -0.002760 0.000000 0
M  V30 END ATOM
M  V30 BEGIN BOND
M  V30 1 1 2 1 CFG=1
M  V30 2 1 2 3
M  V30 3 1 2 4
M  V30 4 1 4 5
M  V30 END BOND
M  V30 BEGIN COLLECTION
M  V30 MDLV30/STEREL1 ATOMS=(1 2)
M  V30 END COLLECTION
M  V30 END CTAB
M  END
>  <ID>
2

>  <OLD>
InChI=1S/C4H10O/c1-3-4(2)5/h4-5H,3H2,1-2H3/t4-/m0/s1

>  <NEW>
InChI=1B/C4H10O/c1-3-4(2)5/h4-5H,3H2,1-2H3/t4-/s2

$$$$
butan-2-ol, AND group: racemate
     RDKit          2D

  0  0  0  0  0  0  0  0  0  0999 V3000
M  V30 BEGIN CTAB
M  V30 COUNTS 5 4 0 0 0
M  V30 BEGIN ATOM
M  V30 1 C 1.213400 -0.497560 0.000000 0
M  V30 2 C 0.346400 0.000640 0.000000 0
M  V30 3 O 0.344400 1.000640 0.000000 0
M  V30 4 C -0.518600 -0.500960 0.000000 0
M  V30 5 C -1.385600 -0.002760 0.000000 0
M  V30 END ATOM
M  V30 BEGIN BOND
M  V30 1 1 2 1 CFG=1
M  V30 2 1 2 3
M  V30 3 1 2 4
M  V30 4 1 4 5
M  V30 END BOND
M  V30 BEGIN COLLECTION
M  V30 MDLV30/STERAC1 ATOMS=(1 2)
M  V30 END COLLECTION
M  V30 END CTAB
M  END
>  <ID>
3

>  <OLD>
InChI=1S/C4H10O/c1-3-4(2)5/h4-5H,3H2,1-2H3/t4-/m0/s1

>  <NEW>
InChI=1B/C4H10O/c1-3-4(2)5/h4-5H,3H2,1-2H3/t4-/s3

$$$$
ungrouped wedge = absolute
     RDKit          2D

  0  0  0  0  0  0  0  0  0  0999 V3000
M  V30 BEGIN CTAB
M  V30 COUNTS 5 4 0 0 0
M  V30 BEGIN ATOM
M  V30 1 C 1.213400 -0.497560 0.000000 0
M  V30 2 C 0.346400 0.000640 0.000000 0
M  V30 3 O 0.344400 1.000640 0.000000 0
M  V30 4 C -0.518600 -0.500960 0.000000 0
M  V30 5 C -1.385600 -0.002760 0.000000 0
M  V30 END ATOM
M  V30 BEGIN BOND
M  V30 1 1 2 1 CFG=1
M  V30 2 1 2 3
M  V30 3 1 2 4
M  V30 4 1 4 5
M  V30 END BOND
M  V30 END CTAB
M  END
>  <ID>
4

>  <OLD>
InChI=1S/C4H10O/c1-3-4(2)5/h4-5H,3H2,1-2H3/t4-/m0/s1

>  <NEW>
InChI=1B/C4H10O/c1-3-4(2)5/h4-5H,3H2,1-2H3/t4-/m0/s1

$$$$
two centres, one OR group (relative configuration)
     RDKit          2D

  0  0  0  0  0  0  0  0  0  0999 V3000
M  V30 BEGIN CTAB
M  V30 COUNTS 8 7 0 0 0
M  V30 BEGIN ATOM
M  V30 1 C -1.193550 1.310075 0.000000 0
M  V30 2 C -0.326350 0.811875 0.000000 0
M  V30 3 O 0.538650 1.313475 0.000000 0
M  V30 4 C -0.324350 -0.188125 0.000000 0
M  V30 5 N -1.189350 -0.689925 0.000000 0
M  V30 6 C 0.542650 -0.686325 0.000000 0
M  V30 7 O 1.407650 -0.184725 0.000000 0
M  V30 8 O 0.544650 -1.686325 0.000000 0
M  V30 END ATOM
M  V30 BEGIN BOND
M  V30 1 1 2 1 CFG=1
M  V30 2 1 2 3
M  V30 3 1 2 4
M  V30 4 1 4 5 CFG=1
M  V30 5 1 4 6
M  V30 6 2 6 7
M  V30 7 1 6 8
M  V30 END BOND
M  V30 BEGIN COLLECTION
M  V30 MDLV30/STEREL1 ATOMS=(2 2 4)
M  V30 END COLLECTION
M  V30 END CTAB
M  END
>  <ID>
5

>  <OLD>
InChI=1S/C4H9NO3/c1-2(6)3(5)4(7)8/h2-3,6H,5H2,1H3,(H,7,8)/t2-,3+/m1/s1

>  <NEW>
InChI=1B/C4H9NO3/c1-2(6)3(5)4(7)8/h2-3,6H,5H2,1H3,(H,7,8)/t2-,3+/s2

$$$$
two centres, one AND group (racemic diastereomer)
     RDKit          2D

  0  0  0  0  0  0  0  0  0  0999 V3000
M  V30 BEGIN CTAB
M  V30 COUNTS 8 7 0 0 0
M  V30 BEGIN ATOM
M  V30 1 C -1.193550 1.310075 0.000000 0
M  V30 2 C -0.326350 0.811875 0.000000 0
M  V30 3 O 0.538650 1.313475 0.000000 0
M  V30 4 C -0.324350 -0.188125 0.000000 0
M  V30 5 N -1.189350 -0.689925 0.000000 0
M  V30 6 C 0.542650 -0.686325 0.000000 0
M  V30 7 O 1.407650 -0.184725 0.000000 0
M  V30 8 O 0.544650 -1.686325 0.000000 0
M  V30 END ATOM
M  V30 BEGIN BOND
M  V30 1 1 2 1 CFG=1
M  V30 2 1 2 3
M  V30 3 1 2 4
M  V30 4 1 4 5 CFG=1
M  V30 5 1 4 6
M  V30 6 2 6 7
M  V30 7 1 6 8
M  V30 END BOND
M  V30 BEGIN COLLECTION
M  V30 MDLV30/STERAC1 ATOMS=(2 2 4)
M  V30 END COLLECTION
M  V30 END CTAB
M  END
>  <ID>
6

>  <OLD>
InChI=1S/C4H9NO3/c1-2(6)3(5)4(7)8/h2-3,6H,5H2,1H3,(H,7,8)/t2-,3+/m1/s1

>  <NEW>
InChI=1B/C4H9NO3/c1-2(6)3(5)4(7)8/h2-3,6H,5H2,1H3,(H,7,8)/t2-,3+/s3

$$$$
two independent OR groups
     RDKit          2D

  0  0  0  0  0  0  0  0  0  0999 V3000
M  V30 BEGIN CTAB
M  V30 COUNTS 8 7 0 0 0
M  V30 BEGIN ATOM
M  V30 1 C -1.193550 1.310075 0.000000 0
M  V30 2 C -0.326350 0.811875 0.000000 0
M  V30 3 O 0.538650 1.313475 0.000000 0
M  V30 4 C -0.324350 -0.188125 0.000000 0
M  V30 5 N -1.189350 -0.689925 0.000000 0
M  V30 6 C 0.542650 -0.686325 0.000000 0
M  V30 7 O 1.407650 -0.184725 0.000000 0
M  V30 8 O 0.544650 -1.686325 0.000000 0
M  V30 END ATOM
M  V30 BEGIN BOND
M  V30 1 1 2 1 CFG=1
M  V30 2 1 2 3
M  V30 3 1 2 4
M  V30 4 1 4 5 CFG=1
M  V30 5 1 4 6
M  V30 6 2 6 7
M  V30 7 1 6 8
M  V30 END BOND
M  V30 BEGIN COLLECTION
M  V30 MDLV30/STEREL1 ATOMS=(1 2)
M  V30 MDLV30/STEREL2 ATOMS=(1 4)
M  V30 END COLLECTION
M  V30 END CTAB
M  END
>  <ID>
7

>  <OLD>
InChI=1S/C4H9NO3/c1-2(6)3(5)4(7)8/h2-3,6H,5H2,1H3,(H,7,8)/t2-,3+/m1/s1

>  <NEW>
InChI=1B/C4H9NO3/c1-2(6)3(5)4(7)8/h2-3,6H,5H2,1H3,(H,7,8)/t2-,3-/s2(2)(3)

$$$$
two independent AND groups
     RDKit          2D

  0  0  0  0  0  0  0  0  0  0999 V3000
M  V30 BEGIN CTAB
M  V30 COUNTS 8 7 0 0 0
M  V30 BEGIN ATOM
M  V30 1 C -1.193550 1.310075 0.000000 0
M  V30 2 C -0.326350 0.811875 0.000000 0
M  V30 3 O 0.538650 1.313475 0.000000 0
M  V30 4 C -0.324350 -0.188125 0.000000 0
M  V30 5 N -1.189350 -0.689925 0.000000 0
M  V30 6 C 0.542650 -0.686325 0.000000 0
M  V30 7 O 1.407650 -0.184725 0.000000 0
M  V30 8 O 0.544650 -1.686325 0.000000 0
M  V30 END ATOM
M  V30 BEGIN BOND
M  V30 1 1 2 1 CFG=1
M  V30 2 1 2 3
M  V30 3 1 2 4
M  V30 4 1 4 5 CFG=1
M  V30 5 1 4 6
M  V30 6 2 6 7
M  V30 7 1 6 8
M  V30 END BOND
M  V30 BEGIN COLLECTION
M  V30 MDLV30/STERAC1 ATOMS=(1 2)
M  V30 MDLV30/STERAC2 ATOMS=(1 4)
M  V30 END COLLECTION
M  V30 END CTAB
M  END
>  <ID>
8

>  <OLD>
InChI=1S/C4H9NO3/c1-2(6)3(5)4(7)8/h2-3,6H,5H2,1H3,(H,7,8)/t2-,3+/m1/s1

>  <NEW>
InChI=1B/C4H9NO3/c1-2(6)3(5)4(7)8/h2-3,6H,5H2,1H3,(H,7,8)/t2-,3-/s3(2)(3)

$$$$
ABS + OR
     RDKit          2D

  0  0  0  0  0  0  0  0  0  0999 V3000
M  V30 BEGIN CTAB
M  V30 COUNTS 8 7 0 0 0
M  V30 BEGIN ATOM
M  V30 1 C -1.193550 1.310075 0.000000 0
M  V30 2 C -0.326350 0.811875 0.000000 0
M  V30 3 O 0.538650 1.313475 0.000000 0
M  V30 4 C -0.324350 -0.188125 0.000000 0
M  V30 5 N -1.189350 -0.689925 0.000000 0
M  V30 6 C 0.542650 -0.686325 0.000000 0
M  V30 7 O 1.407650 -0.184725 0.000000 0
M  V30 8 O 0.544650 -1.686325 0.000000 0
M  V30 END ATOM
M  V30 BEGIN BOND
M  V30 1 1 2 1 CFG=1
M  V30 2 1 2 3
M  V30 3 1 2 4
M  V30 4 1 4 5 CFG=1
M  V30 5 1 4 6
M  V30 6 2 6 7
M  V30 7 1 6 8
M  V30 END BOND
M  V30 BEGIN COLLECTION
M  V30 MDLV30/STEABS ATOMS=(1 2)
M  V30 MDLV30/STEREL1 ATOMS=(1 4)
M  V30 END COLLECTION
M  V30 END CTAB
M  END
>  <ID>
9

>  <OLD>
InChI=1S/C4H9NO3/c1-2(6)3(5)4(7)8/h2-3,6H,5H2,1H3,(H,7,8)/t2-,3+/m1/s1

>  <NEW>
InChI=1B/C4H9NO3/c1-2(6)3(5)4(7)8/h2-3,6H,5H2,1H3,(H,7,8)/t2-,3-/m1/s1(2)2(3)

$$$$
ABS + AND
     RDKit          2D

  0  0  0  0  0  0  0  0  0  0999 V3000
M  V30 BEGIN CTAB
M  V30 COUNTS 8 7 0 0 0
M  V30 BEGIN ATOM
M  V30 1 C -1.193550 1.310075 0.000000 0
M  V30 2 C -0.326350 0.811875 0.000000 0
M  V30 3 O 0.538650 1.313475 0.000000 0
M  V30 4 C -0.324350 -0.188125 0.000000 0
M  V30 5 N -1.189350 -0.689925 0.000000 0
M  V30 6 C 0.542650 -0.686325 0.000000 0
M  V30 7 O 1.407650 -0.184725 0.000000 0
M  V30 8 O 0.544650 -1.686325 0.000000 0
M  V30 END ATOM
M  V30 BEGIN BOND
M  V30 1 1 2 1 CFG=1
M  V30 2 1 2 3
M  V30 3 1 2 4
M  V30 4 1 4 5 CFG=1
M  V30 5 1 4 6
M  V30 6 2 6 7
M  V30 7 1 6 8
M  V30 END BOND
M  V30 BEGIN COLLECTION
M  V30 MDLV30/STEABS ATOMS=(1 2)
M  V30 MDLV30/STERAC1 ATOMS=(1 4)
M  V30 END COLLECTION
M  V30 END CTAB
M  END
>  <ID>
10

>  <OLD>
InChI=1S/C4H9NO3/c1-2(6)3(5)4(7)8/h2-3,6H,5H2,1H3,(H,7,8)/t2-,3+/m1/s1

>  <NEW>
InChI=1B/C4H9NO3/c1-2(6)3(5)4(7)8/h2-3,6H,5H2,1H3,(H,7,8)/t2-,3-/m1/s1(2)3(3)

$$$$
OR + AND
     RDKit          2D

  0  0  0  0  0  0  0  0  0  0999 V3000
M  V30 BEGIN CTAB
M  V30 COUNTS 8 7 0 0 0
M  V30 BEGIN ATOM
M  V30 1 C -1.193550 1.310075 0.000000 0
M  V30 2 C -0.326350 0.811875 0.000000 0
M  V30 3 O 0.538650 1.313475 0.000000 0
M  V30 4 C -0.324350 -0.188125 0.000000 0
M  V30 5 N -1.189350 -0.689925 0.000000 0
M  V30 6 C 0.542650 -0.686325 0.000000 0
M  V30 7 O 1.407650 -0.184725 0.000000 0
M  V30 8 O 0.544650 -1.686325 0.000000 0
M  V30 END ATOM
M  V30 BEGIN BOND
M  V30 1 1 2 1 CFG=1
M  V30 2 1 2 3
M  V30 3 1 2 4
M  V30 4 1 4 5 CFG=1
M  V30 5 1 4 6
M  V30 6 2 6 7
M  V30 7 1 6 8
M  V30 END BOND
M  V30 BEGIN COLLECTION
M  V30 MDLV30/STEREL1 ATOMS=(1 2)
M  V30 MDLV30/STERAC1 ATOMS=(1 4)
M  V30 END COLLECTION
M  V30 END CTAB
M  END
>  <ID>
11

>  <OLD>
InChI=1S/C4H9NO3/c1-2(6)3(5)4(7)8/h2-3,6H,5H2,1H3,(H,7,8)/t2-,3+/m1/s1

>  <NEW>
InChI=1B/C4H9NO3/c1-2(6)3(5)4(7)8/h2-3,6H,5H2,1H3,(H,7,8)/t2-,3-/s2(2)3(3)

$$$$
three classes: ABS, OR, AND
     RDKit          2D

  0  0  0  0  0  0  0  0  0  0999 V3000
M  V30 BEGIN CTAB
M  V30 COUNTS 8 7 0 0 0
M  V30 BEGIN ATOM
M  V30 1 C -1.732750 0.371450 0.000000 0
M  V30 2 C -0.865750 -0.126750 0.000000 0
M  V30 3 O -0.863750 -1.126750 0.000000 0
M  V30 4 C -0.000750 0.375050 0.000000 0
M  V30 5 Cl -0.002750 1.375050 0.000000 0
M  V30 6 C 0.866250 -0.123350 0.000000 0
M  V30 7 Br 0.868250 -1.123150 0.000000 0
M  V30 8 C 1.731250 0.378450 0.000000 0
M  V30 END ATOM
M  V30 BEGIN BOND
M  V30 1 1 2 1 CFG=3
M  V30 2 1 2 3
M  V30 3 1 2 4
M  V30 4 1 4 5 CFG=3
M  V30 5 1 4 6
M  V30 6 1 6 7
M  V30 7 1 6 8 CFG=3
M  V30 END BOND
M  V30 BEGIN COLLECTION
M  V30 MDLV30/STEABS ATOMS=(1 2)
M  V30 MDLV30/STEREL1 ATOMS=(1 4)
M  V30 MDLV30/STERAC1 ATOMS=(1 6)
M  V30 END COLLECTION
M  V30 END CTAB
M  END
>  <ID>
12

>  <OLD>
InChI=1S/C5H10BrClO/c1-3(6)5(7)4(2)8/h3-5,8H,1-2H3/t3-,4+,5+/m0/s1

>  <NEW>
InChI=1B/C5H10BrClO/c1-3(6)5(7)4(2)8/h3-5,8H,1-2H3/t3-,4-,5-/m1/s1(4)2(5)3(3)

$$$$
edge: meso-tartaric acid in an AND group
     RDKit          2D

  0  0  0  0  0  0  0  0  0  0999 V3000
M  V30 BEGIN CTAB
M  V30 COUNTS 10 9 0 0 0
M  V30 BEGIN ATOM
M  V30 1 O 0.435600 -1.249200 0.000000 0
M  V30 2 C 0.433600 -0.249200 0.000000 0
M  V30 3 C 1.298600 0.252600 0.000000 0
M  V30 4 O 1.296600 1.252600 0.000000 0
M  V30 5 O 2.165600 -0.245600 0.000000 0
M  V30 6 C -0.433600 0.249200 0.000000 0
M  V30 7 O -0.435600 1.249200 0.000000 0
M  V30 8 C -1.298600 -0.252600 0.000000 0
M  V30 9 O -1.296600 -1.252600 0.000000 0
M  V30 10 O -2.165600 0.245600 0.000000 0
M  V30 END ATOM
M  V30 BEGIN BOND
M  V30 1 1 2 1 CFG=3
M  V30 2 1 2 3
M  V30 3 2 3 4
M  V30 4 1 3 5
M  V30 5 1 2 6
M  V30 6 1 6 7 CFG=1
M  V30 7 1 6 8
M  V30 8 2 8 9
M  V30 9 1 8 10
M  V30 END BOND
M  V30 BEGIN COLLECTION
M  V30 MDLV30/STERAC1 ATOMS=(2 2 6)
M  V30 END COLLECTION
M  V30 END CTAB
M  END
>  <ID>
13

>  <OLD>
InChI=1S/C4H6O6/c5-1(3(7)8)2(6)4(9)10/h1-2,5-6H,(H,7,8)(H,9,10)/t1-,2+

>  <NEW>
InChI=1B/C4H6O6/c5-1(3(7)8)2(6)4(9)10/h1-2,5-6H,(H,7,8)(H,9,10)/t1-,2+/s3

$$$$
trans-1,2-dimethylcyclohexane, OR group
     RDKit          2D

  0  0  0  0  0  0  0  0  0  0999 V3000
M  V30 BEGIN CTAB
M  V30 COUNTS 8 8 0 0 0
M  V30 BEGIN ATOM
M  V30 1 C -1.299800 -0.999000 0.000000 0
M  V30 2 C -0.433400 -0.499600 0.000000 0
M  V30 3 C 0.432200 -1.000400 0.000000 0
M  V30 4 C 1.298600 -0.501000 0.000000 0
M  V30 5 C 1.299400 0.499000 0.000000 0
M  V30 6 C 0.433800 0.999600 0.000000 0
M  V30 7 C -0.432600 0.500400 0.000000 0
M  V30 8 C -1.298200 1.001000 0.000000 0
M  V30 END ATOM
M  V30 BEGIN BOND
M  V30 1 1 2 1 CFG=1
M  V30 2 1 2 3
M  V30 3 1 3 4
M  V30 4 1 4 5
M  V30 5 1 5 6
M  V30 6 1 6 7
M  V30 7 1 7 8 CFG=3
M  V30 8 1 7 2
M  V30 END BOND
M  V30 BEGIN COLLECTION
M  V30 MDLV30/STEREL1 ATOMS=(2 2 7)
M  V30 END COLLECTION
M  V30 END CTAB
M  END
>  <ID>
14

>  <OLD>
InChI=1S/C8H16/c1-7-5-3-4-6-8(7)2/h7-8H,3-6H2,1-2H3/t7-,8-/m1/s1

>  <NEW>
InChI=1B/C8H16/c1-7-5-3-4-6-8(7)2/h7-8H,3-6H2,1-2H3/t7-,8-/s2

$$$$
edge: ungrouped wedge beside an OR group
     RDKit          2D

  0  0  0  0  0  0  0  0  0  0999 V3000
M  V30 BEGIN CTAB
M  V30 COUNTS 8 7 0 0 0
M  V30 BEGIN ATOM
M  V30 1 C 2.165600 -0.245600 0.000000 0
M  V30 2 C 1.298600 0.252600 0.000000 0
M  V30 3 O 1.296600 1.252600 0.000000 0
M  V30 4 C 0.433600 -0.249200 0.000000 0
M  V30 5 C -0.433600 0.249200 0.000000 0
M  V30 6 C -1.298600 -0.252600 0.000000 0
M  V30 7 C -2.165600 0.245600 0.000000 0
M  V30 8 Cl -1.296600 -1.252600 0.000000 0
M  V30 END ATOM
M  V30 BEGIN BOND
M  V30 1 1 2 1 CFG=3
M  V30 2 1 2 3
M  V30 3 1 2 4
M  V30 4 1 4 5
M  V30 5 1 5 6
M  V30 6 1 6 7 CFG=1
M  V30 7 1 6 8
M  V30 END BOND
M  V30 BEGIN COLLECTION
M  V30 MDLV30/STEREL1 ATOMS=(1 2)
M  V30 END COLLECTION
M  V30 END CTAB
M  END
>  <ID>
15

>  <OLD>
InChI=1S/C6H13ClO/c1-5(7)3-4-6(2)8/h5-6,8H,3-4H2,1-2H3/t5-,6+/m0/s1

>  <NEW>
InChI=1B/C6H13ClO/c1-5(7)3-4-6(2)8/h5-6,8H,3-4H2,1-2H3/t5-,6-/m0/s2(6)

$$$$
two components, one OR group each
     RDKit          2D

  0  0  0  0  0  0  0  0  0  0999 V3000
M  V30 BEGIN CTAB
M  V30 COUNTS 11 9 0 0 0
M  V30 BEGIN ATOM
M  V30 1 C 1.260364 -2.270200 0.000000 0
M  V30 2 C 0.393364 -1.772000 0.000000 0
M  V30 3 O 0.391364 -0.772000 0.000000 0
M  V30 4 C -0.471636 -2.273600 0.000000 0
M  V30 5 C -1.338636 -1.775400 0.000000 0
M  V30 6 C 1.549364 1.063767 0.000000 0
M  V30 7 C 0.682364 1.561967 0.000000 0
M  V30 8 O 0.680364 2.561967 0.000000 0
M  V30 9 C -0.182636 1.060167 0.000000 0
M  V30 10 C -1.049636 1.558567 0.000000 0
M  V30 11 C -1.914636 1.056767 0.000000 0
M  V30 END ATOM
M  V30 BEGIN BOND
M  V30 1 1 2 1 CFG=1
M  V30 2 1 2 3
M  V30 3 1 2 4
M  V30 4 1 4 5
M  V30 5 1 7 6 CFG=1
M  V30 6 1 7 8
M  V30 7 1 7 9
M  V30 8 1 9 10
M  V30 9 1 10 11
M  V30 END BOND
M  V30 BEGIN COLLECTION
M  V30 MDLV30/STEREL1 ATOMS=(1 2)
M  V30 MDLV30/STEREL2 ATOMS=(1 7)
M  V30 END COLLECTION
M  V30 END CTAB
M  END
>  <ID>
16

>  <OLD>
InChI=1S/C5H12O.C4H10O/c1-3-4-5(2)6;1-3-4(2)5/h5-6H,3-4H2,1-2H3;4-5H,3H2,1-2H3/t5-;4-/m00/s1

>  <NEW>
InChI=1B/C5H12O.C4H10O/c1-3-4-5(2)6;1-3-4(2)5/h5-6H,3-4H2,1-2H3;4-5H,3H2,1-2H3/t5-;4-/s2

$$$$
two components, both absolute: uniform /s
     RDKit          2D

  0  0  0  0  0  0  0  0  0  0999 V3000
M  V30 BEGIN CTAB
M  V30 COUNTS 11 9 0 0 0
M  V30 BEGIN ATOM
M  V30 1 C 1.260364 -2.270200 0.000000 0
M  V30 2 C 0.393364 -1.772000 0.000000 0
M  V30 3 O 0.391364 -0.772000 0.000000 0
M  V30 4 C -0.471636 -2.273600 0.000000 0
M  V30 5 C -1.338636 -1.775400 0.000000 0
M  V30 6 C 1.549364 1.063767 0.000000 0
M  V30 7 C 0.682364 1.561967 0.000000 0
M  V30 8 O 0.680364 2.561967 0.000000 0
M  V30 9 C -0.182636 1.060167 0.000000 0
M  V30 10 C -1.049636 1.558567 0.000000 0
M  V30 11 C -1.914636 1.056767 0.000000 0
M  V30 END ATOM
M  V30 BEGIN BOND
M  V30 1 1 2 1 CFG=1
M  V30 2 1 2 3
M  V30 3 1 2 4
M  V30 4 1 4 5
M  V30 5 1 7 6 CFG=3
M  V30 6 1 7 8
M  V30 7 1 7 9
M  V30 8 1 9 10
M  V30 9 1 10 11
M  V30 END BOND
M  V30 BEGIN COLLECTION
M  V30 MDLV30/STEABS ATOMS=(2 2 7)
M  V30 END COLLECTION
M  V30 END CTAB
M  END
>  <ID>
17

>  <OLD>
InChI=1S/C5H12O.C4H10O/c1-3-4-5(2)6;1-3-4(2)5/h5-6H,3-4H2,1-2H3;4-5H,3H2,1-2H3/t5-;4-/m10/s1

>  <NEW>
InChI=1B/C5H12O.C4H10O/c1-3-4-5(2)6;1-3-4(2)5/h5-6H,3-4H2,1-2H3;4-5H,3H2,1-2H3/t5-;4-/m10/s1

$$$$
edge: AND group spanning two components (dropped)
     RDKit          2D

  0  0  0  0  0  0  0  0  0  0999 V3000
M  V30 BEGIN CTAB
M  V30 COUNTS 11 9 0 0 0
M  V30 BEGIN ATOM
M  V30 1 C 1.260364 -2.270200 0.000000 0
M  V30 2 C 0.393364 -1.772000 0.000000 0
M  V30 3 O 0.391364 -0.772000 0.000000 0
M  V30 4 C -0.471636 -2.273600 0.000000 0
M  V30 5 C -1.338636 -1.775400 0.000000 0
M  V30 6 C 1.549364 1.063767 0.000000 0
M  V30 7 C 0.682364 1.561967 0.000000 0
M  V30 8 O 0.680364 2.561967 0.000000 0
M  V30 9 C -0.182636 1.060167 0.000000 0
M  V30 10 C -1.049636 1.558567 0.000000 0
M  V30 11 C -1.914636 1.056767 0.000000 0
M  V30 END ATOM
M  V30 BEGIN BOND
M  V30 1 1 2 1 CFG=1
M  V30 2 1 2 3
M  V30 3 1 2 4
M  V30 4 1 4 5
M  V30 5 1 7 6 CFG=1
M  V30 6 1 7 8
M  V30 7 1 7 9
M  V30 8 1 9 10
M  V30 9 1 10 11
M  V30 END BOND
M  V30 BEGIN COLLECTION
M  V30 MDLV30/STERAC1 ATOMS=(2 2 7)
M  V30 END COLLECTION
M  V30 END CTAB
M  END
>  <ID>
18

>  <OLD>
InChI=1S/C5H12O.C4H10O/c1-3-4-5(2)6;1-3-4(2)5/h5-6H,3-4H2,1-2H3;4-5H,3H2,1-2H3/t5-;4-/m00/s1

>  <NEW>
InChI=1B/C5H12O.C4H10O/c1-3-4-5(2)6;1-3-4(2)5/h5-6H,3-4H2,1-2H3;4-5H,3H2,1-2H3/t5-;4-/m00/s1

$$$$
edge: centre chiral only by isotope (ethanol-1-d), AND
     RDKit          2D

  0  0  0  0  0  0  0  0  0  0999 V3000
M  V30 BEGIN CTAB
M  V30 COUNTS 4 3 0 0 0
M  V30 BEGIN ATOM
M  V30 1 C -0.287000 0.833933 0.000000 0
M  V30 2 C -0.289000 -0.166067 0.000000 0
M  V30 3 H -1.156000 -0.664267 0.000000 0 MASS=2
M  V30 4 O 0.576000 -0.667867 0.000000 0
M  V30 END ATOM
M  V30 BEGIN BOND
M  V30 1 1 1 2
M  V30 2 1 2 3 CFG=1
M  V30 3 1 2 4
M  V30 END BOND
M  V30 BEGIN COLLECTION
M  V30 MDLV30/STERAC1 ATOMS=(1 2)
M  V30 END COLLECTION
M  V30 END CTAB
M  END
>  <ID>
19

>  <OLD>
InChI=1S/C2H6O/c1-2-3/h3H,2H2,1H3/i2D/t2-/m0/s1

>  <NEW>
InChI=1B/C2H6O/c1-2-3/h3H,2H2,1H3/i2D/t2-/s3

$$$$
edge: ABS label on a CH2 (not a stereocentre)
     RDKit          2D

  0  0  0  0  0  0  0  0  0  0999 V3000
M  V30 BEGIN CTAB
M  V30 COUNTS 5 4 0 0 0
M  V30 BEGIN ATOM
M  V30 1 C 1.213400 -0.497560 0.000000 0
M  V30 2 C 0.346400 0.000640 0.000000 0
M  V30 3 O 0.344400 1.000640 0.000000 0
M  V30 4 C -0.518600 -0.500960 0.000000 0
M  V30 5 C -1.385600 -0.002760 0.000000 0
M  V30 END ATOM
M  V30 BEGIN BOND
M  V30 1 1 2 1 CFG=1
M  V30 2 1 2 3
M  V30 3 1 2 4
M  V30 4 1 4 5
M  V30 END BOND
M  V30 BEGIN COLLECTION
M  V30 MDLV30/STERAC1 ATOMS=(1 2)
M  V30 MDLV30/STEABS ATOMS=(1 4)
M  V30 END COLLECTION
M  V30 END CTAB
M  END
>  <ID>
20

>  <OLD>
InChI=1S/C4H10O/c1-3-4(2)5/h4-5H,3H2,1-2H3/t4-/m0/s1

>  <NEW>
InChI=1B/C4H10O/c1-3-4(2)5/h4-5H,3H2,1-2H3/t4-/s3

$$$$
ibuprofen, racemate
     RDKit          2D

  0  0  0  0  0  0  0  0  0  0999 V3000
M  V30 BEGIN CTAB
M  V30 COUNTS 15 15 0 0 0
M  V30 BEGIN ATOM
M  V30 1 C -3.407387 -1.430520 0.000000 0
M  V30 2 C -2.540987 -0.931320 0.000000 0
M  V30 3 C -2.540187 0.068680 0.000000 0
M  V30 4 C -1.675387 -1.431920 0.000000 0
M  V30 5 C -0.809187 -0.932720 0.000000 0
M  V30 6 C 0.056613 -1.433320 0.000000 0
M  V30 7 C 0.923013 -0.934120 0.000000 0
M  V30 8 C 0.923813 0.066080 0.000000 0
M  V30 9 C 0.058213 0.566480 0.000000 0
M  V30 10 C -0.808387 0.067280 0.000000 0
M  V30 11 C 1.790213 0.565280 0.000000 0
M  V30 12 C 2.655813 0.064480 0.000000 0
M  V30 13 C 1.791013 1.565280 0.000000 0
M  V30 14 O 0.925413 2.065880 0.000000 0
M  V30 15 O 2.657413 2.064480 0.000000 0
M  V30 END ATOM
M  V30 BEGIN BOND
M  V30 1 1 1 2
M  V30 2 1 2 3
M  V30 3 1 2 4
M  V30 4 1 4 5
M  V30 5 1 5 6
M  V30 6 2 6 7
M  V30 7 1 7 8
M  V30 8 2 8 9
M  V30 9 1 9 10
M  V30 10 1 8 11
M  V30 11 1 11 12 CFG=3
M  V30 12 1 11 13
M  V30 13 2 13 14
M  V30 14 1 13 15
M  V30 15 2 10 5
M  V30 END BOND
M  V30 BEGIN COLLECTION
M  V30 MDLV30/STERAC1 ATOMS=(1 11)
M  V30 END COLLECTION
M  V30 END CTAB
M  END
>  <ID>
21

>  <OLD>
InChI=1S/C13H18O2/c1-9(2)8-11-4-6-12(7-5-11)10(3)13(14)15/h4-7,9-10H,8H2,1-3H3,(H,14,15)/t10-/m1/s1

>  <NEW>
InChI=1B/C13H18O2/c1-9(2)8-11-4-6-12(7-5-11)10(3)13(14)15/h4-7,9-10H,8H2,1-3H3,(H,14,15)/t10-/s3

$$$$
thalidomide, racemate
     RDKit          2D

  0  0  0  0  0  0  0  0  0  0999 V3000
M  V30 BEGIN CTAB
M  V30 COUNTS 19 21 0 0 0
M  V30 BEGIN ATOM
M  V30 1 O 3.389337 2.042053 0.000000 0
M  V30 2 C 2.521137 1.545853 0.000000 0
M  V30 3 C 1.657337 2.049653 0.000000 0
M  V30 4 C 0.789137 1.553453 0.000000 0
M  V30 5 C 0.784737 0.553453 0.000000 0
M  V30 6 N -0.083463 0.057253 0.000000 0
M  V30 7 C -0.995263 0.467853 0.000000 0
M  V30 8 O -1.198863 1.446853 0.000000 0
M  V30 9 C -1.667663 -0.272147 0.000000 0
M  V30 10 C -2.667663 -0.267747 0.000000 0
M  V30 11 C -3.171463 -1.131547 0.000000 0
M  V30 12 C -2.675263 -1.999747 0.000000 0
M  V30 13 C -1.675263 -2.004147 0.000000 0
M  V30 14 C -1.171463 -1.140347 0.000000 0
M  V30 15 C -0.192463 -0.936747 0.000000 0
M  V30 16 O 0.547737 -1.609147 0.000000 0
M  V30 17 C 1.648537 0.049653 0.000000 0
M  V30 18 O 1.644137 -0.950347 0.000000 0
M  V30 19 N 2.516737 0.545853 0.000000 0
M  V30 END ATOM
M  V30 BEGIN BOND
M  V30 1 2 1 2
M  V30 2 1 2 3
M  V30 3 1 3 4
M  V30 4 1 4 5
M  V30 5 1 5 6 CFG=3
M  V30 6 1 6 7
M  V30 7 2 7 8
M  V30 8 1 7 9
M  V30 9 2 9 10
M  V30 10 1 10 11
M  V30 11 2 11 12
M  V30 12 1 12 13
M  V30 13 2 13 14
M  V30 14 1 14 15
M  V30 15 2 15 16
M  V30 16 1 5 17
M  V30 17 2 17 18
M  V30 18 1 17 19
M  V30 19 1 19 2
M  V30 20 1 15 6
M  V30 21 1 14 9
M  V30 END BOND
M  V30 BEGIN COLLECTION
M  V30 MDLV30/STERAC1 ATOMS=(1 5)
M  V30 END COLLECTION
M  V30 END CTAB
M  END
>  <ID>
22

>  <OLD>
InChI=1S/C13H10N2O4/c16-10-6-5-9(11(17)14-10)15-12(18)7-3-1-2-4-8(7)13(15)19/h1-4,9H,5-6H2,(H,14,16,17)/t9-/m1/s1

>  <NEW>
InChI=1B/C13H10N2O4/c16-10-6-5-9(11(17)14-10)15-12(18)7-3-1-2-4-8(7)13(15)19/h1-4,9H,5-6H2,(H,14,16,17)/t9-/s3

$$$$
ephedrine, relative configuration (OR)
     RDKit          2D

  0  0  0  0  0  0  0  0  0  0999 V3000
M  V30 BEGIN CTAB
M  V30 COUNTS 12 12 0 0 0
M  V30 BEGIN ATOM
M  V30 1 C -2.958400 0.135650 0.000000 0
M  V30 2 N -2.090600 0.632450 0.000000 0
M  V30 3 C -1.226400 0.129450 0.000000 0
M  V30 4 C -1.230000 -0.870550 0.000000 0
M  V30 5 C -0.358600 0.626250 0.000000 0
M  V30 6 O -0.355000 1.626250 0.000000 0
M  V30 7 C 0.505600 0.123250 0.000000 0
M  V30 8 C 1.373400 0.620050 0.000000 0
M  V30 9 C 2.237600 0.116850 0.000000 0
M  V30 10 C 2.234200 -0.882950 0.000000 0
M  V30 11 C 1.366200 -1.379950 0.000000 0
M  V30 12 C 0.502000 -0.876750 0.000000 0
M  V30 END ATOM
M  V30 BEGIN BOND
M  V30 1 1 1 2
M  V30 2 1 2 3
M  V30 3 1 3 4 CFG=3
M  V30 4 1 3 5
M  V30 5 1 5 6 CFG=3
M  V30 6 1 5 7
M  V30 7 2 7 8
M  V30 8 1 8 9
M  V30 9 2 9 10
M  V30 10 1 10 11
M  V30 11 2 11 12
M  V30 12 1 12 7
M  V30 END BOND
M  V30 BEGIN COLLECTION
M  V30 MDLV30/STEREL1 ATOMS=(2 3 5)
M  V30 END COLLECTION
M  V30 END CTAB
M  END
>  <ID>
23

>  <OLD>
InChI=1S/C10H15NO/c1-8(11-2)10(12)9-6-4-3-5-7-9/h3-8,10-12H,1-2H3/t8-,10-/m0/s1

>  <NEW>
InChI=1B/C10H15NO/c1-8(11-2)10(12)9-6-4-3-5-7-9/h3-8,10-12H,1-2H3/t8-,10-/s2

$$$$


MDL-Draw12200218542D
  0  0  0  0  0  0              0 V3000
M  V30 BEGIN CTAB
M  V30 COUNTS 29 32 0 0 0
M  V30 BEGIN ATOM
M  V30 1 C -0.0544 -0.428 0 0
M  V30 2 C -0.0544 -1.278 0 0 CFG=2
M  V30 3 C -0.7962 -1.6974 0 0
M  V30 4 C -0.7962 -2.544 0 0
M  V30 5 C -0.0703 -2.9817 0 0
M  V30 6 C 0.6716 -2.5622 0 0 CFG=1
M  V30 7 C 0.6716 -1.7051 0 0 CFG=2
M  V30 8 C 1.4208 -1.2852 0 0
M  V30 9 C 1.4093 -2.9942 0 0
M  V30 10 C -1.2907 1.3481 0 0
M  V30 11 C -2.0326 0.9232 0 0
M  V30 12 C -2.0326 0.0734 0 0
M  V30 13 C -1.293 -0.3579 0 0
M  V30 14 C -0.5534 0.9274 0 0
M  V30 15 C -0.5534 0.074 0 0
M  V30 16 N 0.77 -0.3022 0 0
M  V30 17 C 1.1707 0.466 0 0 CFG=1
M  V30 18 C 0.8061 1.2704 0 0
M  V30 19 N -0.0142 1.4289 0 0
M  V30 20 O 1.3356 1.938 0 0
M  V30 21 C -2.7699 1.3485 0 0 CFG=2
M  V30 22 C -2.7699 2.2058 0 0 CFG=2
M  V30 23 C -3.4976 2.6309 0 0 CFG=2
M  V30 24 C -4.2412 2.2104 0 0
M  V30 25 C -4.2412 1.355 0 0
M  V30 26 O -3.4976 3.4805 0 0
M  V30 27 O -2.0178 2.624 0 0
M  V30 28 C 2.0249 0.466 0 0
M  V30 29 C -3.4995 0.9299 0 0
M  V30 END ATOM
M  V30 BEGIN BOND
M  V30 1 1 2 1 CFG=1
M  V30 2 1 7 8 CFG=1
M  V30 3 1 6 9 CFG=1
M  V30 4 1 2 3
M  V30 5 1 2 7
M  V30 6 1 3 4
M  V30 7 1 4 5
M  V30 8 1 5 6
M  V30 9 1 6 7
M  V30 10 2 1 16
M  V30 11 1 16 17
M  V30 12 1 17 18
M  V30 13 1 19 14
M  V30 14 1 18 19
M  V30 15 2 18 20
M  V30 16 1 21 11 CFG=1
M  V30 17 1 21 22
M  V30 18 1 22 23
M  V30 19 1 23 24
M  V30 20 1 24 25
M  V30 21 1 23 26 CFG=3
M  V30 22 1 22 27 CFG=3
M  V30 23 1 17 28 CFG=1
M  V30 24 1 10 11
M  V30 25 2 10 14
M  V30 26 2 11 12
M  V30 27 1 12 13
M  V30 28 2 13 15
M  V30 29 1 14 15
M  V30 30 1 15 1
M  V30 31 1 25 29
M  V30 32 1 29 21
M  V30 END BOND
M  V30 BEGIN COLLECTION
M  V30 MDLV30/STEABS ATOMS=(1 17)
M  V30 MDLV30/STEREL2 ATOMS=(2 6 7)
M  V30 MDLV30/STEREL1 ATOMS=(2 22 23)
M  V30 MDLV30/STERAC2 ATOMS=(1 2)
M  V30 MDLV30/STERAC1 ATOMS=(1 21)
M  V30 END COLLECTION
M  V30 END CTAB
M  END
>  <ID>
24

>  <OLD>
InChI=1S/C24H34N2O3/c1-13-6-4-7-17(14(13)2)22-19-11-10-16(18-8-5-9-21(27)23(18)28)12-20(19)26-24(29)15(3)25-22/h10-15,17-18,21,23,27-28H,4-9H2,1-3H3,(H,26,29)/t13-,14-,15+,17+,18+,21-,23+/m0/s1

>  <NEW>
InChI=1B/C24H34N2O3/c1-13-6-4-7-17(14(13)2)22-19-11-10-16(18-8-5-9-21(27)23(18)28)12-20(19)26-24(29)15(3)25-22/h10-15,17-18,21,23,27-28H,4-9H2,1-3H3,(H,26,29)/t13-,14-,15-,17-,18-,21-,23+/m1/s1(15)2(13,14)(21,23)3(17)(18)

$$$$

Actelion Java MolfileCreator 2.0

  0  0  0  0  0  0              0 V3000
M  V30 BEGIN CTAB
M  V30 COUNTS 196 196 0 0 0
M  V30 BEGIN ATOM
M  V30 1 C 39.2678 -20.497 0 0 CFG=2
M  V30 2 N 37.7034 -21.4019 0 0
M  V30 3 C 40.832 -21.4019 0 0
M  V30 4 C 39.2678 -18.6956 0 0 CFG=1
M  V30 5 C 36.1393 -20.497 0 0
M  V30 6 C 37.7034 -23.2034 0 0
M  V30 7 N 42.3962 -20.497 0 0
M  V30 8 O 40.832 -23.2034 0 0
M  V30 9 C 40.832 -17.7902 0 0 CFG=1
M  V30 10 O 37.7034 -17.7902 0 0
M  V30 11 C 34.575 -21.4019 0 0 CFG=1
M  V30 12 O 36.1393 -18.6956 0 0
M  V30 13 C 43.9605 -21.4019 0 0 CFG=2
M  V30 14 C 40.832 -15.9801 0 0
M  V30 15 C 42.3962 -18.6956 0 0
M  V30 16 N 33.0111 -20.497 0 0
M  V30 17 C 45.5246 -20.497 0 0
M  V30 18 C 43.9605 -23.2034 0 0
M  V30 19 C 39.2678 -15.075 0 0
M  V30 20 C 31.4468 -21.4019 0 0
M  V30 21 C 33.0111 -18.6956 0 0
M  V30 22 N 47.0889 -21.4019 0 0
M  V30 23 O 45.5246 -18.6956 0 0
M  V30 24 C 42.3962 -24.1087 0 0
M  V30 25 C 39.2678 -13.2734 0 0
M  V30 26 C 29.8827 -20.497 0 0 CFG=1
M  V30 27 O 31.4468 -23.2034 0 0
M  V30 28 C 47.0889 -23.2034 0 0
M  V30 29 C 48.653 -20.497 0 0
M  V30 30 C 37.7034 -12.3682 0 0
M  V30 31 N 28.3184 -21.4019 0 0
M  V30 32 C 29.8827 -18.6956 0 0
M  V30 33 C 48.653 -24.1087 0 0
M  V30 34 C 28.3613 -27.1414 0 0
M  V30 35 C 26.508 -21.4019 0 0
M  V30 36 C 28.3184 -17.7902 0 0
M  V30 37 N 49.2896 -26.802 0 0
M  V30 38 O 50.2174 -23.2034 0 0
M  V30 39 C 26.7972 -28.0465 0 0 CFG=1
M  V30 40 O 30.0926 -26.6581 0 0
M  V30 41 C 28.3184 -15.9801 0 0
M  V30 42 C 26.7543 -18.6956 0 0
M  V30 43 C 48.696 -29.8481 0 0 CFG=2
M  V30 44 C 50.8583 -26.7002 0 0
M  V30 45 N 26.7972 -29.8481 0 0
M  V30 46 C 25.2329 -27.1414 0 0
M  V30 47 C 47.1319 -30.7532 0 0
M  V30 48 C 50.2603 -30.7532 0 0
M  V30 49 C 28.3613 -30.7532 0 0
M  V30 50 C 25.2329 -30.7532 0 0
M  V30 51 C 23.6686 -28.0465 0 0
M  V30 52 N 45.5675 -29.8481 0 0
M  V30 53 O 47.1319 -32.5548 0 0
M  V30 54 C 51.8244 -29.8481 0 0
M  V30 55 C 29.9256 -29.8481 0 0 CFG=2
M  V30 56 O 28.3613 -32.5548 0 0
M  V30 57 C 22.1045 -27.1414 0 0
M  V30 58 C 22.7283 -29.7074 0 0
M  V30 59 C 44.0034 -30.7532 0 0 CFG=2
M  V30 60 C 53.3887 -30.7532 0 0
M  V30 61 C 51.8244 -28.0465 0 0
M  V30 62 N 31.4897 -30.7532 0 0
M  V30 63 C 29.9256 -28.0465 0 0
M  V30 64 C 42.4391 -29.8481 0 0
M  V30 65 C 44.0385 -33.0994 0 0
M  V30 66 C 33.0541 -29.8481 0 0
M  V30 67 N 40.875 -30.7532 0 0
M  V30 68 O 42.4391 -28.0465 0 0
M  V30 69 C 42.3688 -34.4791 0 0
M  V30 70 C 45.6291 -34.3386 0 0
M  V30 71 C 34.6179 -30.7532 0 0 CFG=1
M  V30 72 O 33.0541 -28.0465 0 0
M  V30 73 C 39.3107 -29.8481 0 0 CFG=2
M  V30 74 C 40.875 -32.5548 0 0
M  V30 75 N 36.1823 -29.8481 0 0
M  V30 76 C 34.6179 -32.5548 0 0
M  V30 77 C 37.7464 -30.7532 0 0
M  V30 78 O 37.7464 -32.5548 0 0
M  V30 79 C 34.5748 -23.2092 0 0
M  V30 80 C 33.0098 -24.1128 0 0
M  V30 81 C 36.14 -24.1128 0 0
M  V30 82 C 39.3107 -28.0408 0 0
M  V30 83 C 37.7457 -27.1372 0 0
M  V30 84 C 37.7457 -25.3298 0 0
M  V30 85 C 36.1805 -28.0408 0 0
M  V30 86 H 38.4856 -20.0488 0 0
M  V30 87 H 38.4856 -19.1436 0 0
M  V30 88 H 37.7034 -24.4646 0 0
M  V30 89 H 36.4423 -23.2034 0 0
M  V30 90 H 38.9645 -23.2034 0 0
M  V30 91 H 42.396 -19.592 0 0
M  V30 92 H 40.832 -18.6956 0 0
M  V30 93 H 35.957 -18.2562 0 0
M  V30 94 H 33.793 -21.8531 0 0
M  V30 95 H 44.7426 -21.8502 0 0
M  V30 96 H 42.0982 -15.9791 0 0
M  V30 97 H 41.4642 -14.8831 0 0
M  V30 98 H 43.4911 -19.3294 0 0
M  V30 99 H 41.7624 -19.7905 0 0
M  V30 100 H 43.0299 -17.6008 0 0
M  V30 101 H 44.5956 -24.2953 0 0
M  V30 102 H 45.2236 -23.1994 0 0
M  V30 103 H 38.4856 -15.5232 0 0
M  V30 104 H 33.0111 -17.4347 0 0
M  V30 105 H 34.2721 -18.6956 0 0
M  V30 106 H 31.7502 -18.6956 0 0
M  V30 107 H 41.3012 -24.7423 0 0
M  V30 108 H 41.7626 -23.0136 0 0
M  V30 109 H 43.0298 -25.2037 0 0
M  V30 110 H 40.0499 -12.8252 0 0
M  V30 111 H 30.6647 -20.0488 0 0
M  V30 112 H 45.8259 -23.1995 0 0
M  V30 113 H 46.4539 -24.2953 0 0
M  V30 114 H 49.7479 -19.8634 0 0
M  V30 115 H 49.2864 -21.5919 0 0
M  V30 116 H 48.0195 -19.4021 0 0
M  V30 117 H 36.6084 -11.7346 0 0
M  V30 118 H 38.337 -11.2731 0 0
M  V30 119 H 37.0698 -13.4633 0 0
M  V30 120 H 31.1458 -18.7 0 0
M  V30 121 H 30.518 -17.604 0 0
M  V30 122 H 25.2408 -21.4019 0 0
M  V30 123 H 26.508 -20.1347 0 0
M  V30 124 H 26.508 -22.6692 0 0
M  V30 125 H 28.3185 -18.6956 0 0
M  V30 126 H 26.015 -28.4947 0 0
M  V30 127 H 28.3184 -14.7131 0 0
M  V30 128 H 29.5855 -15.9801 0 0
M  V30 129 H 27.0513 -15.9801 0 0
M  V30 130 H 25.6594 -19.3294 0 0
M  V30 131 H 26.1205 -17.6008 0 0
M  V30 132 H 27.388 -19.7905 0 0
M  V30 133 H 48.6961 -30.7532 0 0
M  V30 134 H 51.9564 -26.6289 0 0
M  V30 135 H 50.9296 -27.7983 0 0
M  V30 136 H 50.787 -25.6021 0 0
M  V30 137 H 25.8654 -26.0457 0 0
M  V30 138 H 24.6003 -26.0457 0 0
M  V30 139 H 49.6278 -31.8489 0 0
M  V30 140 H 50.893 -31.8487 0 0
M  V30 141 H 24.1378 -31.3869 0 0
M  V30 142 H 24.5993 -29.6582 0 0
M  V30 143 H 25.8664 -31.8483 0 0
M  V30 144 H 23.6687 -27.1414 0 0
M  V30 145 H 45.5674 -28.9429 0 0
M  V30 146 H 51.0423 -29.3999 0 0
M  V30 147 H 30.7077 -29.3999 0 0
M  V30 148 H 21.0096 -26.5077 0 0
M  V30 149 H 22.7381 -26.0465 0 0
M  V30 150 H 21.4708 -28.2362 0 0
M  V30 151 H 22.0702 -30.8701 0 0
M  V30 152 H 21.5657 -29.0493 0 0
M  V30 153 H 23.8909 -30.3656 0 0
M  V30 154 H 44.803 -31.4737 0 0
M  V30 155 H 54.4837 -31.3869 0 0
M  V30 156 H 52.7551 -31.8483 0 0
M  V30 157 H 54.0223 -29.6582 0 0
M  V30 158 H 51.8244 -26.7854 0 0
M  V30 159 H 53.0855 -28.0465 0 0
M  V30 160 H 50.5633 -28.0465 0 0
M  V30 161 H 31.4896 -31.6584 0 0
M  V30 162 H 29.9256 -26.7854 0 0
M  V30 163 H 31.1867 -28.0465 0 0
M  V30 164 H 28.6645 -28.0465 0 0
M  V30 165 H 44.8163 -32.5459 0 0
M  V30 166 H 41.2 -35.4448 0 0
M  V30 167 H 41.403 -33.3103 0 0
M  V30 168 H 43.3346 -35.6477 0 0
M  V30 169 H 46.7425 -35.2061 0 0
M  V30 170 H 44.7616 -35.4521 0 0
M  V30 171 H 46.4966 -33.2252 0 0
M  V30 172 H 33.836 -31.2015 0 0
M  V30 173 H 40.0929 -29.397 0 0
M  V30 174 H 40.875 -33.8159 0 0
M  V30 175 H 39.6139 -32.5548 0 0
M  V30 176 H 42.1361 -32.5548 0 0
M  V30 177 H 36.1824 -28.9429 0 0
M  V30 178 H 34.6179 -33.8159 0 0
M  V30 179 H 33.3568 -32.5548 0 0
M  V30 180 H 35.879 -32.5548 0 0
M  V30 181 H 33.7924 -22.7574 0 0
M  V30 182 H 31.9143 -24.7454 0 0
M  V30 183 H 32.3773 -23.0173 0 0
M  V30 184 H 33.6423 -25.2083 0 0
M  V30 185 H 37.2356 -24.7454 0 0
M  V30 186 H 35.5073 -25.2085 0 0
M  V30 187 H 36.7725 -23.0172 0 0
M  V30 188 H 40.5757 -28.0408 0 0
M  V30 189 H 39.9432 -26.9452 0 0
M  V30 190 H 38.5282 -26.6854 0 0
M  V30 191 H 37.7457 -24.0648 0 0
M  V30 192 H 39.0108 -25.3298 0 0
M  V30 193 H 36.4806 -25.3298 0 0
M  V30 194 H 35.0849 -28.6734 0 0
M  V30 195 H 35.548 -26.9452 0 0
M  V30 196 H 36.8131 -29.1365 0 0
M  V30 END ATOM
M  V30 BEGIN BOND
M  V30 1 1 1 2 CFG=1
M  V30 2 1 1 3
M  V30 3 1 1 4
M  V30 4 1 2 5
M  V30 5 1 2 6
M  V30 6 1 3 7
M  V30 7 2 3 8
M  V30 8 1 4 9
M  V30 9 1 4 10 CFG=3
M  V30 10 1 5 11
M  V30 11 2 5 12
M  V30 12 1 7 13
M  V30 13 1 9 14
M  V30 14 1 9 15 CFG=1
M  V30 15 1 11 16
M  V30 16 1 13 17
M  V30 17 1 13 18 CFG=3
M  V30 18 1 14 19
M  V30 19 1 16 20
M  V30 20 1 16 21
M  V30 21 1 17 22
M  V30 22 2 17 23
M  V30 23 1 18 24
M  V30 24 2 19 25
M  V30 25 1 20 26
M  V30 26 2 20 27
M  V30 27 1 22 28
M  V30 28 1 22 29
M  V30 29 1 25 30
M  V30 30 1 26 31
M  V30 31 1 26 32 CFG=1
M  V30 32 1 28 33
M  V30 33 1 31 35
M  V30 34 1 32 36
M  V30 35 2 33 38
M  V30 36 1 34 39
M  V30 37 2 34 40
M  V30 38 1 36 41
M  V30 39 1 36 42
M  V30 40 1 37 43
M  V30 41 1 37 44
M  V30 42 1 39 45
M  V30 43 1 39 46 CFG=1
M  V30 44 1 43 47
M  V30 45 1 43 48 CFG=1
M  V30 46 1 45 49
M  V30 47 1 45 50
M  V30 48 1 46 51
M  V30 49 1 47 52
M  V30 50 2 47 53
M  V30 51 1 48 54
M  V30 52 1 49 55
M  V30 53 2 49 56
M  V30 54 1 51 57
M  V30 55 1 51 58
M  V30 56 1 52 59
M  V30 57 1 54 60
M  V30 58 1 54 61
M  V30 59 1 55 62
M  V30 60 1 55 63 CFG=1
M  V30 61 1 59 64
M  V30 62 1 59 65 CFG=1
M  V30 63 1 62 66
M  V30 64 1 64 67
M  V30 65 2 64 68
M  V30 66 1 65 69
M  V30 67 1 65 70
M  V30 68 1 66 71
M  V30 69 2 66 72
M  V30 70 1 67 73
M  V30 71 1 67 74
M  V30 72 1 71 75
M  V30 73 1 71 76 CFG=1
M  V30 74 1 73 77
M  V30 75 2 77 78
M  V30 76 1 75 77
M  V30 77 1 11 79 CFG=3
M  V30 78 1 79 80
M  V30 79 1 79 81
M  V30 80 1 73 82 CFG=3
M  V30 81 1 82 83
M  V30 82 1 83 84
M  V30 83 1 83 85
M  V30 84 1 34 31
M  V30 85 1 33 37
M  V30 86 1 1 86
M  V30 87 1 4 87
M  V30 88 1 6 88
M  V30 89 1 6 89
M  V30 90 1 6 90
M  V30 91 1 7 91
M  V30 92 1 9 92
M  V30 93 1 10 93
M  V30 94 1 11 94
M  V30 95 1 13 95
M  V30 96 1 14 96 CFG=1
M  V30 97 1 14 97
M  V30 98 1 15 98
M  V30 99 1 15 99
M  V30 100 1 15 100
M  V30 101 1 18 101 CFG=1
M  V30 102 1 18 102
M  V30 103 1 19 103
M  V30 104 1 21 104
M  V30 105 1 21 105
M  V30 106 1 21 106
M  V30 107 1 24 107
M  V30 108 1 24 108
M  V30 109 1 24 109
M  V30 110 1 25 110
M  V30 111 1 26 111
M  V30 112 1 28 112 CFG=1
M  V30 113 1 28 113
M  V30 114 1 29 114
M  V30 115 1 29 115
M  V30 116 1 29 116
M  V30 117 1 30 117
M  V30 118 1 30 118
M  V30 119 1 30 119
M  V30 120 1 32 120 CFG=1
M  V30 121 1 32 121
M  V30 122 1 35 122
M  V30 123 1 35 123
M  V30 124 1 35 124
M  V30 125 1 36 125
M  V30 126 1 39 126
M  V30 127 1 41 127
M  V30 128 1 41 128
M  V30 129 1 41 129
M  V30 130 1 42 130
M  V30 131 1 42 131
M  V30 132 1 42 132
M  V30 133 1 43 133
M  V30 134 1 44 134
M  V30 135 1 44 135
M  V30 136 1 44 136
M  V30 137 1 46 137 CFG=1
M  V30 138 1 46 138
M  V30 139 1 48 139 CFG=1
M  V30 140 1 48 140
M  V30 141 1 50 141
M  V30 142 1 50 142
M  V30 143 1 50 143
M  V30 144 1 51 144
M  V30 145 1 52 145
M  V30 146 1 54 146
M  V30 147 1 55 147
M  V30 148 1 57 148
M  V30 149 1 57 149
M  V30 150 1 57 150
M  V30 151 1 58 151
M  V30 152 1 58 152
M  V30 153 1 58 153
M  V30 154 1 59 154
M  V30 155 1 60 155
M  V30 156 1 60 156
M  V30 157 1 60 157
M  V30 158 1 61 158
M  V30 159 1 61 159
M  V30 160 1 61 160
M  V30 161 1 62 161
M  V30 162 1 63 162
M  V30 163 1 63 163
M  V30 164 1 63 164
M  V30 165 1 65 165
M  V30 166 1 69 166
M  V30 167 1 69 167
M  V30 168 1 69 168
M  V30 169 1 70 169
M  V30 170 1 70 170
M  V30 171 1 70 171
M  V30 172 1 71 172
M  V30 173 1 73 173
M  V30 174 1 74 174
M  V30 175 1 74 175
M  V30 176 1 74 176
M  V30 177 1 75 177
M  V30 178 1 76 178
M  V30 179 1 76 179
M  V30 180 1 76 180
M  V30 181 1 79 181
M  V30 182 1 80 182
M  V30 183 1 80 183
M  V30 184 1 80 184
M  V30 185 1 81 185
M  V30 186 1 81 186
M  V30 187 1 81 187
M  V30 188 1 82 188 CFG=1
M  V30 189 1 82 189
M  V30 190 1 83 190
M  V30 191 1 84 191
M  V30 192 1 84 192
M  V30 193 1 84 193
M  V30 194 1 85 194
M  V30 195 1 85 195
M  V30 196 1 85 196
M  V30 END BOND
M  V30 BEGIN COLLECTION
M  V30 MDLV30/STERAC1 ATOMS=(12 1 4 9 11 13 26 39 43 55 59 71 73)
M  V30 END COLLECTION
M  V30 END CTAB
M  END
>  <ID>
25

>  <OLD>
InChI=1S/C62H111N11O12/c1-25-27-28-40(15)52(75)51-56(79)65-43(26-2)58(81)67(18)33-48(74)68(19)44(29-34(3)4)55(78)66-49(38(11)12)61(84)69(20)45(30-35(5)6)54(77)63-41(16)53(76)64-42(17)57(80)70(21)46(31-36(7)8)59(82)71(22)47(32-37(9)10)60(83)72(23)50(39(13)14)62(85)73(51)24/h25,27,34-47,49-52,75H,26,28-33H2,1-24H3,(H,63,77)(H,64,76)(H,65,79)(H,66,78)/b27-25+/t40-,41+,42-,43+,44+,45+,46+,47+,49+,50+,51+,52-/m1/s1

>  <NEW>
InChI=1B/C62H111N11O12/c1-25-27-28-40(15)52(75)51-56(79)65-43(26-2)58(81)67(18)33-48(74)68(19)44(29-34(3)4)55(78)66-49(38(11)12)61(84)69(20)45(30-35(5)6)54(77)63-41(16)53(76)64-42(17)57(80)70(21)46(31-36(7)8)59(82)71(22)47(32-37(9)10)60(83)72(23)50(39(13)14)62(85)73(51)24/h25,27,34-47,49-52,75H,26,28-33H2,1-24H3,(H,63,77)(H,64,76)(H,65,79)(H,66,78)/b27-25+/t40-,41+,42-,43+,44+,45+,46+,47+,49+,50+,51+,52-/s3

$$$$
2 And groups, from CXSMILES
  SciTegic04042214202D

  0  0  0  0  0  0            999 V3000
M  V30 BEGIN CTAB
M  V30 COUNTS 22 24 0 0 0
M  V30 BEGIN ATOM
M  V30 1 O 7.4146 -6.05241 0 0
M  V30 2 C 6.20108 -6.93408 0 0
M  V30 3 N 4.83076 -6.32398 0 0
M  V30 4 C 4.67397 -4.83219 0 0
M  V30 5 C 3.30365 -4.22209 0 0 CFG=2
M  V30 6 C 2.00461 -4.97209 0 0
M  V30 7 C 0.8899 -3.96839 0 0
M  V30 8 C 1.5 -2.59808 0 0 CFG=2
M  V30 9 C 0.75 -1.29904 0 0
M  V30 10 C 1.5 0 0 0
M  V30 11 C 0.75 1.29904 0 0
M  V30 12 C -0.75 1.29904 0 0
M  V30 13 C -1.5 0 0 0
M  V30 14 C -0.75 -1.29904 0 0
M  V30 15 O 2.99178 -2.75487 0 0
M  V30 16 N 6.35787 -8.42587 0 0
M  V30 17 C 7.72819 -9.03597 0 0 CFG=2
M  V30 18 C 9.02723 -8.28597 0 0
M  V30 19 O 10.14195 -9.28967 0 0
M  V30 20 C 9.53184 -10.65999 0 0
M  V30 21 C 8.04006 -10.50319 0 0 CFG=2
M  V30 22 O 7.03636 -11.61791 0 0
M  V30 END ATOM
M  V30 BEGIN BOND
M  V30 1 2 1 2
M  V30 2 1 2 3
M  V30 3 1 3 4
M  V30 4 1 5 4 CFG=3
M  V30 5 1 5 6
M  V30 6 1 6 7
M  V30 7 1 8 7 CFG=3
M  V30 8 1 8 9
M  V30 9 2 9 10
M  V30 10 1 10 11
M  V30 11 2 11 12
M  V30 12 1 12 13
M  V30 13 2 13 14
M  V30 14 1 8 15
M  V30 15 1 2 16
M  V30 16 1 17 16 CFG=3
M  V30 17 1 17 18
M  V30 18 1 18 19
M  V30 19 1 19 20
M  V30 20 1 20 21
M  V30 21 1 21 22 CFG=3
M  V30 22 1 15 5
M  V30 23 1 21 17
M  V30 24 1 14 9
M  V30 END BOND
M  V30 BEGIN COLLECTION
M  V30 MDLV30/STERAC1 ATOMS=(2 5 8)
M  V30 MDLV30/STERAC2 ATOMS=(2 17 21)
M  V30 END COLLECTION
M  V30 END CTAB
M  END
>  <ID>
26

>  <OLD>
InChI=1S/C16H22N2O4/c19-14-10-21-9-13(14)18-16(20)17-8-12-6-7-15(22-12)11-4-2-1-3-5-11/h1-5,12-15,19H,6-10H2,(H2,17,18,20)/t12-,13+,14-,15+/m0/s1

>  <NEW>
InChI=1B/C16H22N2O4/c19-14-10-21-9-13(14)18-16(20)17-8-12-6-7-15(22-12)11-4-2-1-3-5-11/h1-5,12-15,19H,6-10H2,(H2,17,18,20)/t12-,13-,14+,15+/s3(12,15)(13,14)

$$$$

  Mrv0541 10241113592D          

  0  0  0     0  0            999 V3000
M  V30 BEGIN CTAB
M  V30 COUNTS 14 14 0 0 0
M  V30 BEGIN ATOM
M  V30 1 O -1.3337 6.93 0 0
M  V30 2 C 0 6.16 0 0
M  V30 3 C 0 4.62 0 0 CFG=1
M  V30 4 C 1.3337 3.85 0 0 CFG=2
M  V30 5 C 1.3337 2.31 0 0
M  V30 6 C 2.6673 1.54 0 0
M  V30 7 C 2.6673 0 0 0
M  V30 8 C 1.3337 -0.77 0 0
M  V30 9 C 0 0 0 0
M  V30 10 C 0 1.54 0 0
M  V30 11 N -1.3337 3.85 0 0
M  V30 12 I -1.3337 2.31 0 0
M  V30 13 O 1.3337 6.93 0 0
M  V30 14 C 2.6674 4.62 0 0
M  V30 END ATOM
M  V30 BEGIN BOND
M  V30 1 1 1 2
M  V30 2 1 2 3
M  V30 3 2 2 13
M  V30 4 1 3 4
M  V30 5 1 3 11 CFG=1
M  V30 6 1 4 5
M  V30 7 2 5 6
M  V30 8 1 5 10
M  V30 9 1 6 7
M  V30 10 2 7 8
M  V30 11 1 8 9
M  V30 12 2 9 10
M  V30 13 1 11 12
M  V30 14 1 4 14 CFG=1
M  V30 END BOND
M  V30 BEGIN COLLECTION
M  V30 MDLV30/STEREL1 ATOMS=(1 3)
M  V30 MDLV30/STERAC1 ATOMS=(1 4)
M  V30 END COLLECTION
M  V30 END CTAB
M  END
>  <ID>
27

>  <OLD>
InChI=1S/C10H12INO2/c1-7(9(12-11)10(13)14)8-5-3-2-4-6-8/h2-7,9,12H,1H3,(H,13,14)/t7-,9+/m0/s1

>  <NEW>
InChI=1B/C10H12INO2/c1-7(9(12-11)10(13)14)8-5-3-2-4-6-8/h2-7,9,12H,1H3,(H,13,14)/t7-,9-/s2(9)3(7)

$$$$

  -INDIGO-04192314072D

  0  0  0  0  0  0  0  0  0  0  0 V3000
M  V30 BEGIN CTAB
M  V30 COUNTS 8 8 0 0 0
M  V30 BEGIN ATOM
M  V30 1 C 51.8392 -54.8062 0.0 0
M  V30 2 C 51.8392 -53.2662 0.0 0
M  V30 3 N 53.1738 -55.5762 0.0 0
M  V30 4 C 54.5074 -54.8062 0.0 0
M  V30 5 C 54.5074 -53.2662 0.0 0 CFG=1
M  V30 6 O 53.1738 -52.4962 0.0 0
M  V30 7 N 55.841 -55.5762 0.0 0
M  V30 8 C 55.8411 -52.4962 0.0 0
M  V30 END ATOM
M  V30 BEGIN BOND
M  V30 1 1 1 2
M  V30 2 1 1 3
M  V30 3 1 6 2
M  V30 4 2 3 4
M  V30 5 1 4 5
M  V30 6 1 4 7
M  V30 7 1 5 6
M  V30 8 1 5 8 CFG=1
M  V30 END BOND
M  V30 BEGIN COLLECTION
M  V30 MDLV30/STEREL1 ATOMS=(1 5)
M  V30 END COLLECTION
M  V30 END CTAB
M  END
>  <ID>
28

>  <OLD>
InChI=1S/C5H10N2O/c1-4-5(6)7-2-3-8-4/h4H,2-3H2,1H3,(H2,6,7)/t4-/m0/s1

>  <NEW>
InChI=1B/C5H10N2O/c1-4-5(6)7-2-3-8-4/h4H,2-3H2,1H3,(H2,6,7)/t4-/s2

$$$$
chembl_sterel
  Mrv1712 11011818032D          

  0  0  0     0  0            999 V3000
M  V30 BEGIN CTAB
M  V30 COUNTS 18 19 0 0 0
M  V30 BEGIN ATOM
M  V30 1 C 29.5469 -10.6781 0 0 CFG=1
M  V30 2 C 31.086 -10.6781 0 0 CFG=1
M  V30 3 C 30.3165 -9.3442 0 0
M  V30 4 C 28.7773 -12.0122 0 0
M  V30 5 N 27.238 -12.0034 0 0
M  V30 6 C 28.7687 -9.3442 0 0
M  V30 7 O 29.5383 -13.3631 0 0
M  V30 8 C 32.4199 -11.4477 0 0
M  V30 9 N 33.754 -10.6781 0 0
M  V30 10 C 26.46 -13.3373 0 0
M  V30 11 C 26.4684 -10.6695 0 0
M  V30 12 C 29.5383 -7.9847 0 0
M  V30 13 C 27.2294 -9.3186 0 0
M  V30 14 C 24.9207 -13.3373 0 0
M  V30 15 C 24.9293 -10.6525 0 0
M  V30 16 C 26.4342 -8.0102 0 0
M  V30 17 C 28.7515 -6.6506 0 0
M  V30 18 C 27.2039 -6.6677 0 0
M  V30 END ATOM
M  V30 BEGIN BOND
M  V30 1 1 2 1
M  V30 2 1 1 3
M  V30 3 1 1 4 CFG=3
M  V30 4 1 5 4
M  V30 5 1 1 6
M  V30 6 2 7 4
M  V30 7 1 2 8 CFG=1
M  V30 8 1 9 8
M  V30 9 1 10 5
M  V30 10 1 11 5
M  V30 11 2 12 6
M  V30 12 1 13 6
M  V30 13 1 14 10
M  V30 14 1 15 11
M  V30 15 2 16 13
M  V30 16 1 17 12
M  V30 17 1 18 16
M  V30 18 1 2 3
M  V30 19 2 17 18
M  V30 END BOND
M  V30 BEGIN COLLECTION
M  V30 MDLV30/STEREL1 ATOMS=(2 1 2)
M  V30 END COLLECTION
M  V30 END CTAB
M  END
>  <ID>
29

>  <OLD>
InChI=1S/C15H22N2O/c1-3-17(4-2)14(18)15(10-13(15)11-16)12-8-6-5-7-9-12/h5-9,13H,3-4,10-11,16H2,1-2H3/t13-,15-/m0/s1

>  <NEW>
InChI=1B/C15H22N2O/c1-3-17(4-2)14(18)15(10-13(15)11-16)12-8-6-5-7-9-12/h5-9,13H,3-4,10-11,16H2,1-2H3/t13-,15-/s2

$$$$
EOS49757
Actelion Java MolfileCreator 2.0

  0  0  0  0  0  0              0 V3000
M  V30 BEGIN CTAB
M  V30 COUNTS 21 23 0 0 0
M  V30 BEGIN ATOM
M  V30 1 O 0.0 0.0 0.0 0
M  V30 2 C 1.4813 -0.1422 0.0 0
M  V30 3 N 2.0857 -1.505 0.0 0
M  V30 4 C 2.3583 1.0902 0.0 0
M  V30 5 C 3.5433 -1.8013 0.0 0 CFG=1
M  V30 6 C 1.3272 -2.7967 0.0 0
M  V30 7 O 1.8842 2.536 0.0 0
M  V30 8 C 3.8514 1.1021 0.0 0
M  V30 9 C 3.6855 -3.2826 0.0 0
M  V30 10 C 4.6454 -0.7821 0.0 0
M  V30 11 C 2.3227 -3.8988 0.0 0
M  V30 12 C 3.093 3.4367 0.0 0
M  V30 13 C 4.3018 2.5479 0.0 0
M  V30 14 C 6.0675 -1.2324 0.0 0
M  V30 15 O 3.0811 4.9536 0.0 0
M  V30 16 N 6.5179 -2.6545 0.0 0
M  V30 17 C 7.2763 -0.3318 0.0 0
M  V30 18 C 4.3729 5.7239 0.0 0
M  V30 19 N 8.0111 -2.6427 0.0 0
M  V30 20 C 5.6172 -3.8633 0.0 0
M  V30 21 C 8.4851 -1.2087 0.0 0
M  V30 END ATOM
M  V30 BEGIN BOND
M  V30 1 2 1 2
M  V30 2 1 2 3
M  V30 3 1 2 4
M  V30 4 1 3 5
M  V30 5 1 3 6
M  V30 6 1 4 7
M  V30 7 2 4 8
M  V30 8 1 5 9
M  V30 9 1 5 10 CFG=3
M  V30 10 1 6 11
M  V30 11 1 7 12
M  V30 12 1 8 13
M  V30 13 1 10 14
M  V30 14 1 12 15
M  V30 15 1 14 16
M  V30 16 2 14 17
M  V30 17 1 15 18
M  V30 18 1 16 19
M  V30 19 1 16 20
M  V30 20 1 17 21
M  V30 21 1 9 11
M  V30 22 2 12 13
M  V30 23 2 19 21
M  V30 END BOND
M  V30 BEGIN COLLECTION
M  V30 MDLV30/STEABS ATOMS=(1 5)
M  V30 END COLLECTION
M  V30 END CTAB
M  END
>  <ID>
30

>  <OLD>
InChI=1S/C15H19N3O3/c1-17-11(7-8-16-17)10-12-4-3-9-18(12)15(19)13-5-6-14(20-2)21-13/h5-8,12H,3-4,9-10H2,1-2H3/t12-/m0/s1

>  <NEW>
InChI=1B/C15H19N3O3/c1-17-11(7-8-16-17)10-12-4-3-9-18(12)15(19)13-5-6-14(20-2)21-13/h5-8,12H,3-4,9-10H2,1-2H3/t12-/m0/s1

$$$$
