BrClC=CClF, no collection
     RDKit          2D

  0  0  0  0  0  0  0  0  0  0999 V3000
M  V30 BEGIN CTAB
M  V30 COUNTS 6 5 0 0 0
M  V30 BEGIN ATOM
M  V30 1 Cl 0.430400 1.250800 0.000000 0
M  V30 2 C 0.432600 0.250800 0.000000 0
M  V30 3 Br 1.299600 -0.247400 0.000000 0
M  V30 4 C -0.432600 -0.250800 0.000000 0
M  V30 5 Cl -0.430400 -1.250800 0.000000 0
M  V30 6 F -1.299600 0.247400 0.000000 0
M  V30 END ATOM
M  V30 BEGIN BOND
M  V30 1 1 1 2
M  V30 2 1 2 3
M  V30 3 2 2 4
M  V30 4 1 4 5
M  V30 5 1 4 6
M  V30 END BOND
M  V30 END CTAB
M  END
>  <ID>
55

>  <OLD>
InChI=1S/C2BrCl2F/c3-1(4)2(5)6/b2-1-

>  <NEW>
InChI=1B/C2BrCl2F/c3-1(4)2(5)6/b2-1-

$$$$
BrClC=CClF, other isomer
     RDKit          2D

  0  0  0  0  0  0  0  0  0  0999 V3000
M  V30 BEGIN CTAB
M  V30 COUNTS 6 5 0 0 0
M  V30 BEGIN ATOM
M  V30 1 Cl 1.299600 -0.247400 0.000000 0
M  V30 2 C 0.432600 0.250800 0.000000 0
M  V30 3 Br 0.430400 1.250800 0.000000 0
M  V30 4 C -0.432600 -0.250800 0.000000 0
M  V30 5 Cl -0.430400 -1.250800 0.000000 0
M  V30 6 F -1.299600 0.247400 0.000000 0
M  V30 END ATOM
M  V30 BEGIN BOND
M  V30 1 1 1 2
M  V30 2 1 2 3
M  V30 3 2 2 4
M  V30 4 1 4 5
M  V30 5 1 4 6
M  V30 END BOND
M  V30 END CTAB
M  END
>  <ID>
56

>  <OLD>
InChI=1S/C2BrCl2F/c3-1(4)2(5)6/b2-1+

>  <NEW>
InChI=1B/C2BrCl2F/c3-1(4)2(5)6/b2-1+

$$$$
STEBABS: absolute
     RDKit          2D

  0  0  0  0  0  0  0  0  0  0999 V3000
M  V30 BEGIN CTAB
M  V30 COUNTS 6 5 0 0 0
M  V30 BEGIN ATOM
M  V30 1 Cl 0.430400 1.250800 0.000000 0
M  V30 2 C 0.432600 0.250800 0.000000 0
M  V30 3 Br 1.299600 -0.247400 0.000000 0
M  V30 4 C -0.432600 -0.250800 0.000000 0
M  V30 5 Cl -0.430400 -1.250800 0.000000 0
M  V30 6 F -1.299600 0.247400 0.000000 0
M  V30 END ATOM
M  V30 BEGIN BOND
M  V30 1 1 1 2
M  V30 2 1 2 3
M  V30 3 2 2 4
M  V30 4 1 4 5
M  V30 5 1 4 6
M  V30 END BOND
M  V30 BEGIN COLLECTION
M  V30 MDLV30/STEBABS BONDS=(1 3)
M  V30 END COLLECTION
M  V30 END CTAB
M  END
>  <ID>
57

>  <OLD>
InChI=1S/C2BrCl2F/c3-1(4)2(5)6/b2-1-

>  <NEW>
InChI=1B/C2BrCl2F/c3-1(4)2(5)6/b2-1-

$$$$
STEBREL1: one isomer, unknown which
     RDKit          2D

  0  0  0  0  0  0  0  0  0  0999 V3000
M  V30 BEGIN CTAB
M  V30 COUNTS 6 5 0 0 0
M  V30 BEGIN ATOM
M  V30 1 Cl 0.430400 1.250800 0.000000 0
M  V30 2 C 0.432600 0.250800 0.000000 0
M  V30 3 Br 1.299600 -0.247400 0.000000 0
M  V30 4 C -0.432600 -0.250800 0.000000 0
M  V30 5 Cl -0.430400 -1.250800 0.000000 0
M  V30 6 F -1.299600 0.247400 0.000000 0
M  V30 END ATOM
M  V30 BEGIN BOND
M  V30 1 1 1 2
M  V30 2 1 2 3
M  V30 3 2 2 4
M  V30 4 1 4 5
M  V30 5 1 4 6
M  V30 END BOND
M  V30 BEGIN COLLECTION
M  V30 MDLV30/STEBREL1 BONDS=(1 3)
M  V30 END COLLECTION
M  V30 END CTAB
M  END
>  <ID>
58

>  <OLD>
InChI=1S/C2BrCl2F/c3-1(4)2(5)6/b2-1-

>  <NEW>
InChI=1B/C2BrCl2F/c3-1(4)2(5)6/b2(2-1-)

$$$$
STEBRAC1: E/Z mixture
     RDKit          2D

  0  0  0  0  0  0  0  0  0  0999 V3000
M  V30 BEGIN CTAB
M  V30 COUNTS 6 5 0 0 0
M  V30 BEGIN ATOM
M  V30 1 Cl 0.430400 1.250800 0.000000 0
M  V30 2 C 0.432600 0.250800 0.000000 0
M  V30 3 Br 1.299600 -0.247400 0.000000 0
M  V30 4 C -0.432600 -0.250800 0.000000 0
M  V30 5 Cl -0.430400 -1.250800 0.000000 0
M  V30 6 F -1.299600 0.247400 0.000000 0
M  V30 END ATOM
M  V30 BEGIN BOND
M  V30 1 1 1 2
M  V30 2 1 2 3
M  V30 3 2 2 4
M  V30 4 1 4 5
M  V30 5 1 4 6
M  V30 END BOND
M  V30 BEGIN COLLECTION
M  V30 MDLV30/STEBRAC1 BONDS=(1 3)
M  V30 END COLLECTION
M  V30 END CTAB
M  END
>  <ID>
59

>  <OLD>
InChI=1S/C2BrCl2F/c3-1(4)2(5)6/b2-1-

>  <NEW>
InChI=1B/C2BrCl2F/c3-1(4)2(5)6/b3(2-1-)

$$$$
OR group, drawn as the other isomer (normalised)
     RDKit          2D

  0  0  0  0  0  0  0  0  0  0999 V3000
M  V30 BEGIN CTAB
M  V30 COUNTS 6 5 0 0 0
M  V30 BEGIN ATOM
M  V30 1 Cl 1.299600 -0.247400 0.000000 0
M  V30 2 C 0.432600 0.250800 0.000000 0
M  V30 3 Br 0.430400 1.250800 0.000000 0
M  V30 4 C -0.432600 -0.250800 0.000000 0
M  V30 5 Cl -0.430400 -1.250800 0.000000 0
M  V30 6 F -1.299600 0.247400 0.000000 0
M  V30 END ATOM
M  V30 BEGIN BOND
M  V30 1 1 1 2
M  V30 2 1 2 3
M  V30 3 2 2 4
M  V30 4 1 4 5
M  V30 5 1 4 6
M  V30 END BOND
M  V30 BEGIN COLLECTION
M  V30 MDLV30/STEBREL1 BONDS=(1 3)
M  V30 END COLLECTION
M  V30 END CTAB
M  END
>  <ID>
60

>  <OLD>
InChI=1S/C2BrCl2F/c3-1(4)2(5)6/b2-1+

>  <NEW>
InChI=1B/C2BrCl2F/c3-1(4)2(5)6/b2(2-1-)

$$$$
edge: crossed double bond (CFG=2, RDKit draws it plain) is unknown, no
     RDKit          2D

  0  0  0  0  0  0  0  0  0  0999 V3000
M  V30 BEGIN CTAB
M  V30 COUNTS 6 5 0 0 0
M  V30 BEGIN ATOM
M  V30 1 Cl 0.430400 1.250800 0.000000 0
M  V30 2 C 0.432600 0.250800 0.000000 0
M  V30 3 Br 1.299600 -0.247400 0.000000 0
M  V30 4 C -0.432600 -0.250800 0.000000 0
M  V30 5 Cl -0.430400 -1.250800 0.000000 0
M  V30 6 F -1.299600 0.247400 0.000000 0
M  V30 END ATOM
M  V30 BEGIN BOND
M  V30 1 1 1 2
M  V30 2 1 2 3
M  V30 3 2 2 4 CFG=2
M  V30 4 1 4 5
M  V30 5 1 4 6
M  V30 END BOND
M  V30 BEGIN COLLECTION
M  V30 MDLV30/STEBREL1 BONDS=(1 3)
M  V30 END COLLECTION
M  V30 END CTAB
M  END
>  <ID>
61

>  <OLD>
InChI=1S/C2BrCl2F/c3-1(4)2(5)6

>  <NEW>
InChI=1B/C2BrCl2F/c3-1(4)2(5)6

$$$$
diene, no collection
     RDKit          2D

  0  0  0  0  0  0  0  0  0  0999 V3000
M  V30 BEGIN CTAB
M  V30 COUNTS 11 10 0 0 0
M  V30 BEGIN ATOM
M  V30 1 F -0.712818 -2.134982 0.000000 0
M  V30 2 C 0.154182 -1.636582 0.000000 0
M  V30 3 Br 1.019182 -2.138382 0.000000 0
M  V30 4 C 0.156182 -0.636582 0.000000 0
M  V30 5 Cl 1.023182 -0.138382 0.000000 0
M  V30 6 C -0.708818 -0.134982 0.000000 0
M  V30 7 C -0.706818 0.865018 0.000000 0
M  V30 8 Cl -1.571818 1.366818 0.000000 0
M  V30 9 C 0.160182 1.363218 0.000000 0
M  V30 10 I 1.025182 0.861618 0.000000 0
M  V30 11 F 0.162182 2.363218 0.000000 0
M  V30 END ATOM
M  V30 BEGIN BOND
M  V30 1 1 1 2
M  V30 2 1 2 3
M  V30 3 2 2 4
M  V30 4 1 4 5
M  V30 5 1 4 6
M  V30 6 1 6 7
M  V30 7 1 7 8
M  V30 8 2 7 9
M  V30 9 1 9 10
M  V30 10 1 9 11
M  V30 END BOND
M  V30 END CTAB
M  END
>  <ID>
62

>  <OLD>
InChI=1S/C5H2BrCl2F2I/c6-4(9)2(7)1-3(8)5(10)11/h1H2/b4-2+,5-3+

>  <NEW>
InChI=1B/C5H2BrCl2F2I/c6-4(9)2(7)1-3(8)5(10)11/h1H2/b4-2+,5-3+

$$$$
diene, both bonds in one AND group
     RDKit          2D

  0  0  0  0  0  0  0  0  0  0999 V3000
M  V30 BEGIN CTAB
M  V30 COUNTS 11 10 0 0 0
M  V30 BEGIN ATOM
M  V30 1 F -0.712818 -2.134982 0.000000 0
M  V30 2 C 0.154182 -1.636582 0.000000 0
M  V30 3 Br 1.019182 -2.138382 0.000000 0
M  V30 4 C 0.156182 -0.636582 0.000000 0
M  V30 5 Cl 1.023182 -0.138382 0.000000 0
M  V30 6 C -0.708818 -0.134982 0.000000 0
M  V30 7 C -0.706818 0.865018 0.000000 0
M  V30 8 Cl -1.571818 1.366818 0.000000 0
M  V30 9 C 0.160182 1.363218 0.000000 0
M  V30 10 I 1.025182 0.861618 0.000000 0
M  V30 11 F 0.162182 2.363218 0.000000 0
M  V30 END ATOM
M  V30 BEGIN BOND
M  V30 1 1 1 2
M  V30 2 1 2 3
M  V30 3 2 2 4
M  V30 4 1 4 5
M  V30 5 1 4 6
M  V30 6 1 6 7
M  V30 7 1 7 8
M  V30 8 2 7 9
M  V30 9 1 9 10
M  V30 10 1 9 11
M  V30 END BOND
M  V30 BEGIN COLLECTION
M  V30 MDLV30/STEBRAC1 BONDS=(2 3 8)
M  V30 END COLLECTION
M  V30 END CTAB
M  END
>  <ID>
63

>  <OLD>
InChI=1S/C5H2BrCl2F2I/c6-4(9)2(7)1-3(8)5(10)11/h1H2/b4-2+,5-3+

>  <NEW>
InChI=1B/C5H2BrCl2F2I/c6-4(9)2(7)1-3(8)5(10)11/h1H2/b3(4-2-,5-3-)

$$$$
diene, one bond flipped, one AND group
     RDKit          2D

  0  0  0  0  0  0  0  0  0  0999 V3000
M  V30 BEGIN CTAB
M  V30 COUNTS 11 10 0 0 0
M  V30 BEGIN ATOM
M  V30 1 F 1.019182 -2.138382 0.000000 0
M  V30 2 C 0.154182 -1.636582 0.000000 0
M  V30 3 Br -0.712818 -2.134982 0.000000 0
M  V30 4 C 0.156182 -0.636582 0.000000 0
M  V30 5 Cl 1.023182 -0.138382 0.000000 0
M  V30 6 C -0.708818 -0.134982 0.000000 0
M  V30 7 C -0.706818 0.865018 0.000000 0
M  V30 8 Cl -1.571818 1.366818 0.000000 0
M  V30 9 C 0.160182 1.363218 0.000000 0
M  V30 10 I 1.025182 0.861618 0.000000 0
M  V30 11 F 0.162182 2.363218 0.000000 0
M  V30 END ATOM
M  V30 BEGIN BOND
M  V30 1 1 1 2
M  V30 2 1 2 3
M  V30 3 2 2 4
M  V30 4 1 4 5
M  V30 5 1 4 6
M  V30 6 1 6 7
M  V30 7 1 7 8
M  V30 8 2 7 9
M  V30 9 1 9 10
M  V30 10 1 9 11
M  V30 END BOND
M  V30 BEGIN COLLECTION
M  V30 MDLV30/STEBRAC1 BONDS=(2 3 8)
M  V30 END COLLECTION
M  V30 END CTAB
M  END
>  <ID>
64

>  <OLD>
InChI=1S/C5H2BrCl2F2I/c6-4(9)2(7)1-3(8)5(10)11/h1H2/b4-2-,5-3+

>  <NEW>
InChI=1B/C5H2BrCl2F2I/c6-4(9)2(7)1-3(8)5(10)11/h1H2/b3(4-2-,5-3+)

$$$$
diene, two AND groups
     RDKit          2D

  0  0  0  0  0  0  0  0  0  0999 V3000
M  V30 BEGIN CTAB
M  V30 COUNTS 11 10 0 0 0
M  V30 BEGIN ATOM
M  V30 1 F -0.712818 -2.134982 0.000000 0
M  V30 2 C 0.154182 -1.636582 0.000000 0
M  V30 3 Br 1.019182 -2.138382 0.000000 0
M  V30 4 C 0.156182 -0.636582 0.000000 0
M  V30 5 Cl 1.023182 -0.138382 0.000000 0
M  V30 6 C -0.708818 -0.134982 0.000000 0
M  V30 7 C -0.706818 0.865018 0.000000 0
M  V30 8 Cl -1.571818 1.366818 0.000000 0
M  V30 9 C 0.160182 1.363218 0.000000 0
M  V30 10 I 1.025182 0.861618 0.000000 0
M  V30 11 F 0.162182 2.363218 0.000000 0
M  V30 END ATOM
M  V30 BEGIN BOND
M  V30 1 1 1 2
M  V30 2 1 2 3
M  V30 3 2 2 4
M  V30 4 1 4 5
M  V30 5 1 4 6
M  V30 6 1 6 7
M  V30 7 1 7 8
M  V30 8 2 7 9
M  V30 9 1 9 10
M  V30 10 1 9 11
M  V30 END BOND
M  V30 BEGIN COLLECTION
M  V30 MDLV30/STEBRAC2 BONDS=(1 3)
M  V30 MDLV30/STEBRAC1 BONDS=(1 8)
M  V30 END COLLECTION
M  V30 END CTAB
M  END
>  <ID>
65

>  <OLD>
InChI=1S/C5H2BrCl2F2I/c6-4(9)2(7)1-3(8)5(10)11/h1H2/b4-2+,5-3+

>  <NEW>
InChI=1B/C5H2BrCl2F2I/c6-4(9)2(7)1-3(8)5(10)11/h1H2/b3(4-2-)(5-3-)

$$$$
diene, one OR bond, the other absolute
     RDKit          2D

  0  0  0  0  0  0  0  0  0  0999 V3000
M  V30 BEGIN CTAB
M  V30 COUNTS 11 10 0 0 0
M  V30 BEGIN ATOM
M  V30 1 F -0.712818 -2.134982 0.000000 0
M  V30 2 C 0.154182 -1.636582 0.000000 0
M  V30 3 Br 1.019182 -2.138382 0.000000 0
M  V30 4 C 0.156182 -0.636582 0.000000 0
M  V30 5 Cl 1.023182 -0.138382 0.000000 0
M  V30 6 C -0.708818 -0.134982 0.000000 0
M  V30 7 C -0.706818 0.865018 0.000000 0
M  V30 8 Cl -1.571818 1.366818 0.000000 0
M  V30 9 C 0.160182 1.363218 0.000000 0
M  V30 10 I 1.025182 0.861618 0.000000 0
M  V30 11 F 0.162182 2.363218 0.000000 0
M  V30 END ATOM
M  V30 BEGIN BOND
M  V30 1 1 1 2
M  V30 2 1 2 3
M  V30 3 2 2 4
M  V30 4 1 4 5
M  V30 5 1 4 6
M  V30 6 1 6 7
M  V30 7 1 7 8
M  V30 8 2 7 9
M  V30 9 1 9 10
M  V30 10 1 9 11
M  V30 END BOND
M  V30 BEGIN COLLECTION
M  V30 MDLV30/STEBREL1 BONDS=(1 8)
M  V30 END COLLECTION
M  V30 END CTAB
M  END
>  <ID>
66

>  <OLD>
InChI=1S/C5H2BrCl2F2I/c6-4(9)2(7)1-3(8)5(10)11/h1H2/b4-2+,5-3+

>  <NEW>
InChI=1B/C5H2BrCl2F2I/c6-4(9)2(7)1-3(8)5(10)11/h1H2/b4-2+,2(5-3-)

$$$$
diene, ABS + AND
     RDKit          2D

  0  0  0  0  0  0  0  0  0  0999 V3000
M  V30 BEGIN CTAB
M  V30 COUNTS 11 10 0 0 0
M  V30 BEGIN ATOM
M  V30 1 F -0.712818 -2.134982 0.000000 0
M  V30 2 C 0.154182 -1.636582 0.000000 0
M  V30 3 Br 1.019182 -2.138382 0.000000 0
M  V30 4 C 0.156182 -0.636582 0.000000 0
M  V30 5 Cl 1.023182 -0.138382 0.000000 0
M  V30 6 C -0.708818 -0.134982 0.000000 0
M  V30 7 C -0.706818 0.865018 0.000000 0
M  V30 8 Cl -1.571818 1.366818 0.000000 0
M  V30 9 C 0.160182 1.363218 0.000000 0
M  V30 10 I 1.025182 0.861618 0.000000 0
M  V30 11 F 0.162182 2.363218 0.000000 0
M  V30 END ATOM
M  V30 BEGIN BOND
M  V30 1 1 1 2
M  V30 2 1 2 3
M  V30 3 2 2 4
M  V30 4 1 4 5
M  V30 5 1 4 6
M  V30 6 1 6 7
M  V30 7 1 7 8
M  V30 8 2 7 9
M  V30 9 1 9 10
M  V30 10 1 9 11
M  V30 END BOND
M  V30 BEGIN COLLECTION
M  V30 MDLV30/STEBABS BONDS=(1 3)
M  V30 MDLV30/STEBRAC1 BONDS=(1 8)
M  V30 END COLLECTION
M  V30 END CTAB
M  END
>  <ID>
67

>  <OLD>
InChI=1S/C5H2BrCl2F2I/c6-4(9)2(7)1-3(8)5(10)11/h1H2/b4-2+,5-3+

>  <NEW>
InChI=1B/C5H2BrCl2F2I/c6-4(9)2(7)1-3(8)5(10)11/h1H2/b4-2+,3(5-3-)

$$$$
diene, AND + OR
     RDKit          2D

  0  0  0  0  0  0  0  0  0  0999 V3000
M  V30 BEGIN CTAB
M  V30 COUNTS 11 10 0 0 0
M  V30 BEGIN ATOM
M  V30 1 F -0.712818 -2.134982 0.000000 0
M  V30 2 C 0.154182 -1.636582 0.000000 0
M  V30 3 Br 1.019182 -2.138382 0.000000 0
M  V30 4 C 0.156182 -0.636582 0.000000 0
M  V30 5 Cl 1.023182 -0.138382 0.000000 0
M  V30 6 C -0.708818 -0.134982 0.000000 0
M  V30 7 C -0.706818 0.865018 0.000000 0
M  V30 8 Cl -1.571818 1.366818 0.000000 0
M  V30 9 C 0.160182 1.363218 0.000000 0
M  V30 10 I 1.025182 0.861618 0.000000 0
M  V30 11 F 0.162182 2.363218 0.000000 0
M  V30 END ATOM
M  V30 BEGIN BOND
M  V30 1 1 1 2
M  V30 2 1 2 3
M  V30 3 2 2 4
M  V30 4 1 4 5
M  V30 5 1 4 6
M  V30 6 1 6 7
M  V30 7 1 7 8
M  V30 8 2 7 9
M  V30 9 1 9 10
M  V30 10 1 9 11
M  V30 END BOND
M  V30 BEGIN COLLECTION
M  V30 MDLV30/STEBRAC1 BONDS=(1 3)
M  V30 MDLV30/STEBREL1 BONDS=(1 8)
M  V30 END COLLECTION
M  V30 END CTAB
M  END
>  <ID>
68

>  <OLD>
InChI=1S/C5H2BrCl2F2I/c6-4(9)2(7)1-3(8)5(10)11/h1H2/b4-2+,5-3+

>  <NEW>
InChI=1B/C5H2BrCl2F2I/c6-4(9)2(7)1-3(8)5(10)11/h1H2/b2(5-3-),3(4-2-)

$$$$
OR bond + absolute stereocentre
     RDKit          2D

  0  0  0  0  0  0  0  0  0  0999 V3000
M  V30 BEGIN CTAB
M  V30 COUNTS 8 7 0 0 0
M  V30 BEGIN ATOM
M  V30 1 C -0.865200 -1.125600 0.000000 0
M  V30 2 C -0.866000 -0.125600 0.000000 0
M  V30 3 O -1.732200 0.373600 0.000000 0
M  V30 4 C -0.000200 0.375000 0.000000 0
M  V30 5 Br -0.001000 1.375000 0.000000 0
M  V30 6 C 0.866000 -0.124400 0.000000 0
M  V30 7 Cl 1.731800 0.376400 0.000000 0
M  V30 8 F 0.866800 -1.124400 0.000000 0
M  V30 END ATOM
M  V30 BEGIN BOND
M  V30 1 1 2 1 CFG=1
M  V30 2 1 2 3
M  V30 3 1 2 4
M  V30 4 1 4 5
M  V30 5 2 4 6
M  V30 6 1 6 7
M  V30 7 1 6 8
M  V30 END BOND
M  V30 BEGIN COLLECTION
M  V30 MDLV30/STEABS ATOMS=(1 2)
M  V30 MDLV30/STEBREL2 BONDS=(1 5)
M  V30 END COLLECTION
M  V30 END CTAB
M  END
>  <ID>
69

>  <OLD>
InChI=1S/C4H5BrClFO/c1-2(8)3(5)4(6)7/h2,8H,1H3/b4-3+/t2-/m1/s1

>  <NEW>
InChI=1B/C4H5BrClFO/c1-2(8)3(5)4(6)7/h2,8H,1H3/b2(4-3-)/t2-/m1/s1

$$$$
absolute bond + racemic stereocentre
     RDKit          2D

  0  0  0  0  0  0  0  0  0  0999 V3000
M  V30 BEGIN CTAB
M  V30 COUNTS 8 7 0 0 0
M  V30 BEGIN ATOM
M  V30 1 C -0.865200 -1.125600 0.000000 0
M  V30 2 C -0.866000 -0.125600 0.000000 0
M  V30 3 O -1.732200 0.373600 0.000000 0
M  V30 4 C -0.000200 0.375000 0.000000 0
M  V30 5 Br -0.001000 1.375000 0.000000 0
M  V30 6 C 0.866000 -0.124400 0.000000 0
M  V30 7 Cl 1.731800 0.376400 0.000000 0
M  V30 8 F 0.866800 -1.124400 0.000000 0
M  V30 END ATOM
M  V30 BEGIN BOND
M  V30 1 1 2 1 CFG=1
M  V30 2 1 2 3
M  V30 3 1 2 4
M  V30 4 1 4 5
M  V30 5 2 4 6
M  V30 6 1 6 7
M  V30 7 1 6 8
M  V30 END BOND
M  V30 BEGIN COLLECTION
M  V30 MDLV30/STERAC1 ATOMS=(1 2)
M  V30 MDLV30/STEBABS BONDS=(1 5)
M  V30 END COLLECTION
M  V30 END CTAB
M  END
>  <ID>
70

>  <OLD>
InChI=1S/C4H5BrClFO/c1-2(8)3(5)4(6)7/h2,8H,1H3/b4-3+/t2-/m1/s1

>  <NEW>
InChI=1B/C4H5BrClFO/c1-2(8)3(5)4(6)7/h2,8H,1H3/b4-3+/t2-/s3

$$$$
edge: single bond in a bond collection (ignored)
     RDKit          2D

  0  0  0  0  0  0  0  0  0  0999 V3000
M  V30 BEGIN CTAB
M  V30 COUNTS 6 5 0 0 0
M  V30 BEGIN ATOM
M  V30 1 Cl 0.430400 1.250800 0.000000 0
M  V30 2 C 0.432600 0.250800 0.000000 0
M  V30 3 Br 1.299600 -0.247400 0.000000 0
M  V30 4 C -0.432600 -0.250800 0.000000 0
M  V30 5 Cl -0.430400 -1.250800 0.000000 0
M  V30 6 F -1.299600 0.247400 0.000000 0
M  V30 END ATOM
M  V30 BEGIN BOND
M  V30 1 1 1 2
M  V30 2 1 2 3
M  V30 3 2 2 4
M  V30 4 1 4 5
M  V30 5 1 4 6
M  V30 END BOND
M  V30 BEGIN COLLECTION
M  V30 MDLV30/STEBREL1 BONDS=(1 2)
M  V30 END COLLECTION
M  V30 END CTAB
M  END
>  <ID>
71

>  <OLD>
InChI=1S/C2BrCl2F/c3-1(4)2(5)6/b2-1-

>  <NEW>
InChI=1B/C2BrCl2F/c3-1(4)2(5)6/b2-1-

$$$$
edge: bond in two collections (dropped)
     RDKit          2D

  0  0  0  0  0  0  0  0  0  0999 V3000
M  V30 BEGIN CTAB
M  V30 COUNTS 11 10 0 0 0
M  V30 BEGIN ATOM
M  V30 1 F -0.712818 -2.134982 0.000000 0
M  V30 2 C 0.154182 -1.636582 0.000000 0
M  V30 3 Br 1.019182 -2.138382 0.000000 0
M  V30 4 C 0.156182 -0.636582 0.000000 0
M  V30 5 Cl 1.023182 -0.138382 0.000000 0
M  V30 6 C -0.708818 -0.134982 0.000000 0
M  V30 7 C -0.706818 0.865018 0.000000 0
M  V30 8 Cl -1.571818 1.366818 0.000000 0
M  V30 9 C 0.160182 1.363218 0.000000 0
M  V30 10 I 1.025182 0.861618 0.000000 0
M  V30 11 F 0.162182 2.363218 0.000000 0
M  V30 END ATOM
M  V30 BEGIN BOND
M  V30 1 1 1 2
M  V30 2 1 2 3
M  V30 3 2 2 4
M  V30 4 1 4 5
M  V30 5 1 4 6
M  V30 6 1 6 7
M  V30 7 1 7 8
M  V30 8 2 7 9
M  V30 9 1 9 10
M  V30 10 1 9 11
M  V30 END BOND
M  V30 BEGIN COLLECTION
M  V30 MDLV30/STEBREL1 BONDS=(1 3)
M  V30 MDLV30/STEBRAC1 BONDS=(2 3 8)
M  V30 END COLLECTION
M  V30 END CTAB
M  END
>  <ID>
72

>  <OLD>
InChI=1S/C5H2BrCl2F2I/c6-4(9)2(7)1-3(8)5(10)11/h1H2/b4-2+,5-3+

>  <NEW>
InChI=1B/C5H2BrCl2F2I/c6-4(9)2(7)1-3(8)5(10)11/h1H2/b4-2+,5-3+

$$$$
edge: bond index out of range (dropped)
     RDKit          2D

  0  0  0  0  0  0  0  0  0  0999 V3000
M  V30 BEGIN CTAB
M  V30 COUNTS 11 10 0 0 0
M  V30 BEGIN ATOM
M  V30 1 F -0.712818 -2.134982 0.000000 0
M  V30 2 C 0.154182 -1.636582 0.000000 0
M  V30 3 Br 1.019182 -2.138382 0.000000 0
M  V30 4 C 0.156182 -0.636582 0.000000 0
M  V30 5 Cl 1.023182 -0.138382 0.000000 0
M  V30 6 C -0.708818 -0.134982 0.000000 0
M  V30 7 C -0.706818 0.865018 0.000000 0
M  V30 8 Cl -1.571818 1.366818 0.000000 0
M  V30 9 C 0.160182 1.363218 0.000000 0
M  V30 10 I 1.025182 0.861618 0.000000 0
M  V30 11 F 0.162182 2.363218 0.000000 0
M  V30 END ATOM
M  V30 BEGIN BOND
M  V30 1 1 1 2
M  V30 2 1 2 3
M  V30 3 2 2 4
M  V30 4 1 4 5
M  V30 5 1 4 6
M  V30 6 1 6 7
M  V30 7 1 7 8
M  V30 8 2 7 9
M  V30 9 1 9 10
M  V30 10 1 9 11
M  V30 END BOND
M  V30 BEGIN COLLECTION
M  V30 MDLV30/STEBRAC1 BONDS=(2 3 99)
M  V30 END COLLECTION
M  V30 END CTAB
M  END
>  <ID>
73

>  <OLD>
InChI=1S/C5H2BrCl2F2I/c6-4(9)2(7)1-3(8)5(10)11/h1H2/b4-2+,5-3+

>  <NEW>
InChI=1B/C5H2BrCl2F2I/c6-4(9)2(7)1-3(8)5(10)11/h1H2/b4-2+,5-3+

$$$$
two equal components, OR on one, AND on the other
     RDKit          2D

  0  0  0  0  0  0  0  0  0  0999 V3000
M  V30 BEGIN CTAB
M  V30 COUNTS 12 10 0 0 0
M  V30 BEGIN ATOM
M  V30 1 Cl 2.430400 2.750800 0.000000 0
M  V30 2 C 2.432600 1.750800 0.000000 0
M  V30 3 Br 3.299600 1.252600 0.000000 0
M  V30 4 C 1.567400 1.249200 0.000000 0
M  V30 5 Cl 1.569600 0.249200 0.000000 0
M  V30 6 F 0.700400 1.747400 0.000000 0
M  V30 7 Cl -1.569600 -0.249200 0.000000 0
M  V30 8 C -1.567400 -1.249200 0.000000 0
M  V30 9 Br -0.700400 -1.747400 0.000000 0
M  V30 10 C -2.432600 -1.750800 0.000000 0
M  V30 11 Cl -2.430400 -2.750800 0.000000 0
M  V30 12 F -3.299600 -1.252600 0.000000 0
M  V30 END ATOM
M  V30 BEGIN BOND
M  V30 1 1 1 2
M  V30 2 1 2 3
M  V30 3 2 2 4
M  V30 4 1 4 5
M  V30 5 1 4 6
M  V30 6 1 7 8
M  V30 7 1 8 9
M  V30 8 2 8 10
M  V30 9 1 10 11
M  V30 10 1 10 12
M  V30 END BOND
M  V30 BEGIN COLLECTION
M  V30 MDLV30/STEBREL1 BONDS=(1 3)
M  V30 MDLV30/STEBRAC1 BONDS=(1 8)
M  V30 END COLLECTION
M  V30 END CTAB
M  END
>  <ID>
74

>  <OLD>
InChI=1S/2C2BrCl2F/c2*3-1(4)2(5)6/b2*2-1-

>  <NEW>
InChI=1B/2C2BrCl2F/c2*3-1(4)2(5)6/b2(2-1-);3(2-1-)

$$$$
stilbene, OR group
     RDKit          2D

  0  0  0  0  0  0  0  0  0  0999 V3000
M  V30 BEGIN CTAB
M  V30 COUNTS 14 15 0 0 0
M  V30 BEGIN ATOM
M  V30 1 C 3.039000 -1.230600 0.000000 0
M  V30 2 C 3.032600 -0.230600 0.000000 0
M  V30 3 C 2.163400 0.263800 0.000000 0
M  V30 4 C 1.300600 -0.241600 0.000000 0
M  V30 5 C 1.307000 -1.241600 0.000000 0
M  V30 6 C 2.176200 -1.736000 0.000000 0
M  V30 7 C 0.431400 0.252800 0.000000 0
M  V30 8 C -0.431400 -0.252800 0.000000 0
M  V30 9 C -1.300600 0.241600 0.000000 0
M  V30 10 C -2.163400 -0.263800 0.000000 0
M  V30 11 C -3.032600 0.230600 0.000000 0
M  V30 12 C -3.039000 1.230600 0.000000 0
M  V30 13 C -2.176200 1.736000 0.000000 0
M  V30 14 C -1.307000 1.241600 0.000000 0
M  V30 END ATOM
M  V30 BEGIN BOND
M  V30 1 2 1 2
M  V30 2 1 2 3
M  V30 3 2 3 4
M  V30 4 1 4 5
M  V30 5 2 5 6
M  V30 6 1 4 7
M  V30 7 2 7 8
M  V30 8 1 8 9
M  V30 9 2 9 10
M  V30 10 1 10 11
M  V30 11 2 11 12
M  V30 12 1 12 13
M  V30 13 2 13 14
M  V30 14 1 6 1
M  V30 15 1 14 9
M  V30 END BOND
M  V30 BEGIN COLLECTION
M  V30 MDLV30/STEBREL1 BONDS=(1 7)
M  V30 END COLLECTION
M  V30 END CTAB
M  END
>  <ID>
75

>  <OLD>
InChI=1S/C14H12/c1-3-7-13(8-4-1)11-12-14-9-5-2-6-10-14/h1-12H/b12-11+

>  <NEW>
InChI=1B/C14H12/c1-3-7-13(8-4-1)11-12-14-9-5-2-6-10-14/h1-12H/b2(12-11-)

$$$$
fumaric acid, AND group
     RDKit          2D

  0  0  0  0  0  0  0  0  0  0999 V3000
M  V30 BEGIN CTAB
M  V30 COUNTS 8 7 0 0 0
M  V30 BEGIN ATOM
M  V30 1 O 2.165200 0.248200 0.000000 0
M  V30 2 C 1.298800 -0.251000 0.000000 0
M  V30 3 O 1.298000 -1.251000 0.000000 0
M  V30 4 C 0.433200 0.249600 0.000000 0
M  V30 5 C -0.433200 -0.249600 0.000000 0
M  V30 6 C -1.298800 0.251000 0.000000 0
M  V30 7 O -1.298000 1.251000 0.000000 0
M  V30 8 O -2.165200 -0.248200 0.000000 0
M  V30 END ATOM
M  V30 BEGIN BOND
M  V30 1 1 1 2
M  V30 2 2 2 3
M  V30 3 1 2 4
M  V30 4 2 4 5
M  V30 5 1 5 6
M  V30 6 2 6 7
M  V30 7 1 6 8
M  V30 END BOND
M  V30 BEGIN COLLECTION
M  V30 MDLV30/STEBRAC1 BONDS=(1 4)
M  V30 END COLLECTION
M  V30 END CTAB
M  END
>  <ID>
76

>  <OLD>
InChI=1S/C4H4O4/c5-3(6)1-2-4(7)8/h1-2H,(H,5,6)(H,7,8)/b2-1+

>  <NEW>
InChI=1B/C4H4O4/c5-3(6)1-2-4(7)8/h1-2H,(H,5,6)(H,7,8)/b3(2-1-)

$$$$
citral (geranial), AND group
     RDKit          2D

  0  0  0  0  0  0  0  0  0  0999 V3000
M  V30 BEGIN CTAB
M  V30 COUNTS 11 10 0 0 0
M  V30 BEGIN ATOM
M  V30 1 C 2.439709 -1.047364 0.000000 0
M  V30 2 C 2.440509 -0.047364 0.000000 0
M  V30 3 C 3.306909 0.451836 0.000000 0
M  V30 4 C 1.574909 0.453236 0.000000 0
M  V30 5 C 0.708509 -0.045964 0.000000 0
M  V30 6 C -0.157091 0.454636 0.000000 0
M  V30 7 C -1.023491 -0.044564 0.000000 0
M  V30 8 C -1.024291 -1.044564 0.000000 0
M  V30 9 C -1.889091 0.456036 0.000000 0
M  V30 10 C -2.755491 -0.043364 0.000000 0
M  V30 11 O -3.621091 0.457436 0.000000 0
M  V30 END ATOM
M  V30 BEGIN BOND
M  V30 1 1 1 2
M  V30 2 1 2 3
M  V30 3 2 2 4
M  V30 4 1 4 5
M  V30 5 1 5 6
M  V30 6 1 6 7
M  V30 7 1 7 8
M  V30 8 2 7 9
M  V30 9 1 9 10
M  V30 10 2 10 11
M  V30 END BOND
M  V30 BEGIN COLLECTION
M  V30 MDLV30/STEBRAC1 BONDS=(1 8)
M  V30 END COLLECTION
M  V30 END CTAB
M  END
>  <ID>
77

>  <OLD>
InChI=1S/C10H16O/c1-9(2)5-4-6-10(3)7-8-11/h5,7-8H,4,6H2,1-3H3/b10-7+

>  <NEW>
InChI=1B/C10H16O/c1-9(2)5-4-6-10(3)7-8-11/h5,7-8H,4,6H2,1-3H3/b3(10-7-)

$$$$
acetophenone oxime (C=N), OR group
     RDKit          2D

  0  0  0  0  0  0  0  0  0  0999 V3000
M  V30 BEGIN CTAB
M  V30 COUNTS 10 10 0 0 0
M  V30 BEGIN ATOM
M  V30 1 C 1.042400 -1.597800 0.000000 0
M  V30 2 C 0.175400 -1.099600 0.000000 0
M  V30 3 N -0.689600 -1.601400 0.000000 0
M  V30 4 O -1.556600 -1.103000 0.000000 0
M  V30 5 C 0.173400 -0.099600 0.000000 0
M  V30 6 C -0.693600 0.398600 0.000000 0
M  V30 7 C -0.695600 1.398600 0.000000 0
M  V30 8 C 0.169400 1.900200 0.000000 0
M  V30 9 C 1.036400 1.402000 0.000000 0
M  V30 10 C 1.038400 0.402000 0.000000 0
M  V30 END ATOM
M  V30 BEGIN BOND
M  V30 1 1 1 2
M  V30 2 2 2 3
M  V30 3 1 3 4
M  V30 4 1 2 5
M  V30 5 2 5 6
M  V30 6 1 6 7
M  V30 7 2 7 8
M  V30 8 1 8 9
M  V30 9 2 9 10
M  V30 10 1 10 5
M  V30 END BOND
M  V30 BEGIN COLLECTION
M  V30 MDLV30/STEBREL1 BONDS=(1 2)
M  V30 END COLLECTION
M  V30 END CTAB
M  END
>  <ID>
78

>  <OLD>
InChI=1S/C8H9NO/c1-7(9-10)8-5-3-2-4-6-8/h2-6,10H,1H3/b9-7-

>  <NEW>
InChI=1B/C8H9NO/c1-7(9-10)8-5-3-2-4-6-8/h2-6,10H,1H3/b2(9-7-)

$$$$
all-trans retinal, AND + OR on two of four bonds
     RDKit          2D

  0  0  0  0  0  0  0  0  0  0999 V3000
M  V30 BEGIN CTAB
M  V30 COUNTS 21 21 0 0 0
M  V30 BEGIN ATOM
M  V30 1 C 1.527152 1.666990 0.000000 0
M  V30 2 C 2.392552 1.166390 0.000000 0
M  V30 3 C 2.391752 0.166190 0.000000 0
M  V30 4 C 3.257552 -0.334410 0.000000 0
M  V30 5 C 2.614352 -1.099810 0.000000 0
M  V30 6 C 3.899752 -1.101009 0.000000 0
M  V30 7 C 4.123952 0.164790 0.000000 0
M  V30 8 C 4.124752 1.164990 0.000000 0
M  V30 9 C 3.259152 1.665590 0.000000 0
M  V30 10 C 1.525552 -0.333010 0.000000 0
M  V30 11 C 0.659952 0.167590 0.000000 0
M  V30 12 C -0.206448 -0.331610 0.000000 0
M  V30 13 C -0.207248 -1.331609 0.000000 0
M  V30 14 C -1.072048 0.168991 0.000000 0
M  V30 15 C -1.938448 -0.330210 0.000000 0
M  V30 16 C -2.804047 0.170391 0.000000 0
M  V30 17 C -3.670448 -0.328810 0.000000 0
M  V30 18 C -3.671247 -1.328809 0.000000 0
M  V30 19 C -4.536048 0.171791 0.000000 0
M  V30 20 C -5.402447 -0.327609 0.000000 0
M  V30 21 O -6.268047 0.173191 0.000000 0
M  V30 END ATOM
M  V30 BEGIN BOND
M  V30 1 1 1 2
M  V30 2 2 2 3
M  V30 3 1 3 4
M  V30 4 1 4 5
M  V30 5 1 4 6
M  V30 6 1 4 7
M  V30 7 1 7 8
M  V30 8 1 8 9
M  V30 9 1 3 10
M  V30 10 2 10 11
M  V30 11 1 11 12
M  V30 12 1 12 13
M  V30 13 2 12 14
M  V30 14 1 14 15
M  V30 15 2 15 16
M  V30 16 1 16 17
M  V30 17 1 17 18
M  V30 18 2 17 19
M  V30 19 1 19 20
M  V30 20 2 20 21
M  V30 21 1 9 2
M  V30 END BOND
M  V30 BEGIN COLLECTION
M  V30 MDLV30/STEBRAC1 BONDS=(1 13)
M  V30 MDLV30/STEBREL1 BONDS=(1 18)
M  V30 END COLLECTION
M  V30 END CTAB
M  END
>  <ID>
79

>  <OLD>
InChI=1S/C20H28O/c1-16(8-6-9-17(2)13-15-21)11-12-19-18(3)10-7-14-20(19,4)5/h6,8-9,11-13,15H,7,10,14H2,1-5H3/b9-6+,12-11+,16-8+,17-13+

>  <NEW>
InChI=1B/C20H28O/c1-16(8-6-9-17(2)13-15-21)11-12-19-18(3)10-7-14-20(19,4)5/h6,8-9,11-13,15H,7,10,14H2,1-5H3/b9-6+,12-11+,2(17-13-),3(16-8-)

$$$$
